5
0 1 CH4
C                     0.000076028872     0.000110482821     0.000186509732
H                     2.063562485743     0.000167174755     0.016249181982
H                    -0.688672450017     1.945243375400     0.016249181982
H                    -0.701428082418    -0.992505950829     1.667813184950
H                    -0.674367216062    -0.954220099350    -1.702532288339
