10
Generated by QM7 dataset
N 1.939841628074646 -0.023394810035824776 0.4632285535335541
C 4.307668685913086 -0.013832795433700085 -0.5298225283622742
O 5.307730674743652 -1.9337189197540283 -1.3344868421554565
C 5.519720077514648 2.506986379623413 -0.5343578457832336
C 7.857027530670166 2.799931526184082 -1.4579803943634033
H 1.0585111379623413 1.523931860923767 1.143359899520874
H 1.0217560529708862 -1.6989960670471191 0.5134574770927429
H 4.48192024230957 4.098759174346924 0.22058773040771484
H 8.913497924804688 1.2111632823944092 -2.220163583755493
H 8.7637939453125 4.637217998504639 -1.4711140394210815
