15
Generated by QM7 dataset
C 1.6268463134765625 -0.006103815510869026 0.8178167939186096
C 4.450834274291992 -0.10763879865407944 0.32578879594802856
C 5.651528358459473 2.505436658859253 0.43578973412513733
O 8.295255661010742 2.2482450008392334 -0.045258939266204834
N 9.408795356750488 4.64921760559082 0.07330247759819031
C 11.793970108032227 4.419729232788086 -0.3624305725097656
H 0.8157947659492493 -1.906941533088684 0.7343853712081909
H 0.6693599224090576 1.1626540422439575 -0.595603883266449
H 1.2275471687316895 0.7804002165794373 2.6893069744110107
H 4.812150001525879 -0.9603021144866943 -1.5272955894470215
H 5.362305641174316 -1.3486597537994385 1.7117139101028442
H 5.376233100891113 3.3491804599761963 2.308206081390381
H 4.8146443367004395 3.7474403381347656 -0.9958856701850891
H 13.01883316040039 6.1025872230529785 -0.3543992340564728
H 12.705743789672852 2.586411476135254 -0.753811776638031
