14
Generated by QM7 dataset
C 2.6979241371154785 -1.0146129131317139 -0.001058246591128409
N 5.3343377113342285 -0.4098438024520874 0.25838226079940796
C 6.905550479888916 -0.2124241143465042 -1.7963547706604004
O 6.299005031585693 -0.646040678024292 -3.983429193496704
C 9.524598121643066 0.5661241412162781 -1.1869747638702393
C 10.29142951965332 3.2962682247161865 -1.3942021131515503
O 9.80860424041748 2.147050142288208 1.0135923624038696
H 2.0109899044036865 -1.744160532951355 1.8029876947402954
H 2.424858808517456 -2.4257092475891113 -1.4838885068893433
H 1.6702154874801636 0.7091008424758911 -0.49446573853492737
H 5.998500823974609 0.2581366002559662 1.9281253814697266
H 10.957595825195312 -0.8516995906829834 -1.5334938764572144
H 8.925195693969727 4.64470100402832 -2.101999044418335
H 12.235201835632324 3.7164487838745117 -1.871131181716919
