18
Generated by QM7 dataset
C 2.006586790084839 0.9692405462265015 0.29132017493247986
C 4.536722183227539 0.9493606090545654 0.19783543050289154
C 6.209394454956055 2.8783929347991943 1.4189764261245728
N 7.712690353393555 4.143753528594971 -0.5208463072776794
C 9.456681251525879 6.0098958015441895 0.5474158525466919
C 12.172255516052246 5.292423725128174 0.9567683339118958
C 11.48071002960205 7.081786632537842 -1.1323050260543823
H 0.9147219061851501 -0.4990766644477844 -0.6363841891288757
H 0.9728310108184814 2.4408648014068604 1.2788910865783691
H 5.487519264221191 -0.5669934153556824 -0.8137160539627075
H 7.449130535125732 1.9133855104446411 2.770395278930664
H 5.085952281951904 4.265036106109619 2.474445104598999
H 6.504116058349609 4.993279933929443 -1.7586358785629272
H 8.626127243041992 7.329737663269043 1.8888379335403442
H 12.770769119262695 3.4040393829345703 0.4353550970554352
H 13.128494262695312 6.0545878410339355 2.5986568927764893
H 11.963156700134277 9.058856010437012 -0.9051977396011353
H 11.618962287902832 6.3981781005859375 -3.0582571029663086
