16
Generated by QM7 dataset
C 1.8845105171203613 -0.24931156635284424 0.12438177317380905
C 4.754683017730713 -0.05863820016384125 -0.08698409050703049
O 5.473629474639893 -1.2325928211212158 -2.4181125164031982
C 5.778480052947998 2.6714868545532227 -0.001870828913524747
C 4.6999945640563965 4.224860668182373 2.1847879886627197
C 8.564900398254395 2.629251480102539 0.21399258077144623
N 10.74774169921875 2.6672916412353516 0.41961368918418884
H 1.2106530666351318 0.33593660593032837 1.9883509874343872
H 1.2662866115570068 -2.1989798545837402 -0.19800549745559692
H 0.9579210877418518 0.9137581586837769 -1.3158918619155884
H 5.601393699645996 -1.1876928806304932 1.4313541650772095
H 4.493636608123779 -0.4968656897544861 -3.7889764308929443
H 5.300700664520264 3.6237199306488037 -1.781803846359253
H 5.014010429382324 3.2861015796661377 4.00425386428833
H 2.6680097579956055 4.536325454711914 1.9570759534835815
H 5.59602689743042 6.090341567993164 2.2830159664154053
