13
Generated by QM7 dataset
C 2.036085367202759 -0.09480755776166916 -0.323917955160141
C 4.506392002105713 -0.06678292155265808 0.16170386970043182
N 6.098694324493408 -2.036916971206665 0.6321133971214294
C 8.491219520568848 -1.1734254360198975 1.038102149963379
N 10.479589462280273 -2.4685492515563965 1.5351568460464478
C 8.492863655090332 1.618361473083496 0.8163049817085266
C 6.070159435272217 2.1896634101867676 0.2916414439678192
H 0.9891204237937927 -1.8555220365524292 -0.39096543192863464
H 0.991766095161438 1.6341407299041748 -0.6669032573699951
H 5.5273356437683105 -3.8473689556121826 0.6646355986595154
H 10.017098426818848 -4.343270778656006 1.592755675315857
H 10.113171577453613 2.8158810138702393 1.0420328378677368
H 5.358261585235596 4.07916259765625 0.0008314794977195561
