17
Generated by QM7 dataset
C 1.4070522785186768 3.9642295837402344 -1.0771249532699585
C 3.9308383464813232 2.7417092323303223 -0.7404513955116272
C 6.045366287231445 4.012323379516602 -0.15782992541790009
C 8.466275215148926 2.788536548614502 0.15711182355880737
C 10.585867881774902 4.0554280281066895 0.7305114269256592
C 13.003091812133789 2.826690196990967 1.0429965257644653
C 15.124120712280273 4.081411838531494 1.608062505722046
H 0.05574692040681839 3.1698076725006104 0.27128908038139343
H 0.7036961913108826 3.609490394592285 -2.988847494125366
H 1.4818665981292725 6.010500907897949 -0.7862016558647156
H 3.9838449954986572 0.7043576240539551 -0.9980966448783875
H 5.9735941886901855 6.052490234375 0.09541226923465729
H 8.52394962310791 0.748974084854126 -0.09286114573478699
H 10.531576156616211 6.095973014831543 0.9800497889518738
H 13.08372688293457 0.7861260771751404 0.8033981919288635
H 15.15535831451416 6.115569591522217 1.8674840927124023
H 16.899688720703125 3.0775513648986816 1.8247385025024414
