14
Generated by QM7 dataset
C 2.5201010704040527 -0.5583573579788208 -0.12264322489500046
O 5.1291890144348145 -0.047942351549863815 0.2621050179004669
C 5.695804595947266 2.567098379135132 -0.15826456248760223
C 8.543262481689453 2.9782838821411133 0.1744784116744995
N 9.985445022583008 1.6144307851791382 -1.7607712745666504
H 2.187924861907959 -2.5628275871276855 0.25010526180267334
H 1.985251784324646 -0.15312451124191284 -2.0783207416534424
H 1.363664150238037 0.5567322373390198 1.1790379285812378
H 4.667699337005615 3.7130661010742188 1.2266212701797485
H 5.1007490158081055 3.1211283206939697 -2.0643556118011475
H 9.126583099365234 2.2838473320007324 2.0354807376861572
H 8.989048957824707 4.993582248687744 0.056200455874204636
H 9.330106735229492 -0.20554551482200623 -1.7852243185043335
H 11.828986167907715 1.5101368427276611 -1.2175127267837524
