18
Generated by QM7 dataset
C 2.6997761726379395 -1.4108694791793823 0.4948436915874481
C 5.517055511474609 -0.9086559414863586 0.23326779901981354
C 6.061050891876221 1.9056376218795776 -0.12831240892410278
C 8.848264694213867 2.3883113861083984 -0.3712177872657776
C 9.939826965332031 3.373274564743042 -2.438464879989624
C 12.710978507995605 3.8536806106567383 -2.6806142330169678
H 2.3519530296325684 -3.4373362064361572 0.719853401184082
H 1.6720107793807983 -0.765546977519989 -1.1803796291351318
H 1.9246104955673218 -0.43892669677734375 2.1482596397399902
H 6.249475479125977 -1.9848361015319824 -1.3798024654388428
H 6.488884925842285 -1.6115018129348755 1.9239301681518555
H 5.3486809730529785 2.9752414226531982 1.4975135326385498
H 5.047874450683594 2.6031923294067383 -1.7966004610061646
H 10.005438804626465 1.906129002571106 1.2589921951293945
H 8.78737735748291 3.86488676071167 -4.068051338195801
H 13.754315376281738 3.292299747467041 -0.9848119020462036
H 13.050827026367188 5.86616325378418 -3.0117509365081787
H 13.470799446105957 2.7926182746887207 -4.2848405838012695
