10
Generated by QM7 dataset
N 1.9496115446090698 0.10935845226049423 0.0
C 4.509963512420654 -0.08054012805223465 0.0
O 5.628436088562012 -2.0992212295532227 0.0
C 5.88908576965332 2.2626636028289795 -0.0
C 7.050209045410156 4.213163375854492 -0.0
C 8.444411277770996 6.546464920043945 -0.0
O 7.339904308319092 8.57525634765625 -0.0
H 1.0488924980163574 1.7917060852050781 -0.0
H 0.9288948774337769 -1.503862977027893 0.0
H 10.517837524414062 6.367961406707764 -0.0
