13
Generated by QM7 dataset
O 3.461052417755127 -1.409981369972229 -1.4688841104507446
C 3.798311710357666 0.25505632162094116 0.11595359444618225
C 6.017247200012207 2.0882797241210938 0.12795335054397583
C 5.198825359344482 4.642546653747559 1.0885956287384033
C 5.571120738983154 6.3970818519592285 -0.7087795734405518
C 6.6173295974731445 5.210144996643066 -2.9242377281188965
C 6.9007697105407715 2.729142427444458 -2.4962716102600098
H 2.5522830486297607 0.3557787537574768 1.7872462272644043
H 7.537626266479492 1.3173848390579224 1.2974859476089478
H 4.457845211029053 5.009985446929932 2.9542276859283447
H 5.176432132720947 8.393729209899902 -0.5559007525444031
H 7.079858779907227 6.197678089141846 -4.649387836456299
H 7.6233062744140625 1.3623602390289307 -3.8305883407592773
