19
Generated by QM7 dataset
C 4.121077060699463 -0.046846311539411545 3.104253053665161
C 4.654093265533447 0.4013589322566986 0.3170393407344818
N 5.702286243438721 2.9174346923828125 -0.10053343325853348
C 3.940305709838867 5.0319437980651855 -0.061434995383024216
C 8.252017974853516 3.3677754402160645 0.1198086366057396
N 9.318031311035156 5.552355766296387 0.1340949684381485
C 12.060553550720215 5.419413089752197 0.3775861859321594
H 3.3924741744995117 -1.9598538875579834 3.395327568054199
H 2.714081287384033 1.2893790006637573 3.8197033405303955
H 5.837496280670166 0.1711146980524063 4.239128112792969
H 2.909592390060425 0.16627700626850128 -0.7760160565376282
H 5.969909191131592 -1.042486310005188 -0.3780208230018616
H 2.050957679748535 4.447829723358154 -0.67104172706604
H 4.556866645812988 6.53376579284668 -1.3438409566879272
H 3.7932283878326416 5.809169292449951 1.8493049144744873
H 9.364461898803711 1.6060404777526855 0.28304317593574524
H 12.811323165893555 7.329793930053711 0.6328881978988647
H 12.918905258178711 4.626748561859131 -1.3311609029769897
H 12.633499145507812 4.299221515655518 2.022498369216919
