15
Generated by QM7 dataset
C 1.6684958934783936 -0.17332568764686584 0.0911225974559784
N 4.4002461433410645 0.12413611263036728 0.07454969733953476
C 5.336095333099365 2.369886636734009 -0.01105489768087864
N 3.9850356578826904 4.583247184753418 -0.08339361101388931
C 8.203017234802246 2.5203654766082764 -0.13617366552352905
C 9.410703659057617 4.737789154052734 1.1604241132736206
O 8.245007514953613 6.498768329620361 2.128058433532715
H 1.2072893381118774 -2.1843345165252686 -0.054783161729574203
H 0.7791152000427246 0.7785860896110535 -1.5178279876708984
H 0.8513027429580688 0.5258163213729858 1.8584133386611938
H 2.206840991973877 4.485151767730713 0.6130838394165039
H 4.928462505340576 6.111185550689697 0.6404848694801331
H 8.75379753112793 2.574751853942871 -2.130363941192627
H 9.005698204040527 0.8068941831588745 0.7055103778839111
H 11.496848106384277 4.738658428192139 1.1446070671081543
