17
Generated by QM7 dataset
C 2.0121047496795654 0.19526539742946625 -0.21809329092502594
C 4.826152801513672 0.13847912847995758 -0.09459968656301498
C 6.317864894866943 -1.187995195388794 -2.1211419105529785
C 6.520235538482666 1.64935302734375 -1.8572605848312378
C 5.402273654937744 3.2371575832366943 -3.9475057125091553
N 8.865159034729004 2.6778931617736816 -0.7732192277908325
H 1.2828216552734375 1.706536054611206 0.9882133603096008
H 1.2469546794891357 -1.5970830917358398 0.4740566909313202
H 1.2849760055541992 0.485716313123703 -2.1279828548431396
H 5.448420524597168 -0.13349024951457977 1.8410656452178955
H 5.315478324890137 -1.9513123035430908 -3.736952304840088
H 7.914872169494629 -2.33709979057312 -1.5491218566894531
H 3.8506760597229004 2.288212776184082 -4.9319963455200195
H 6.846515655517578 3.6683740615844727 -5.366236209869385
H 4.688845157623291 5.0231757164001465 -3.187382221221924
H 9.541302680969238 1.549821138381958 0.6306204795837402
H 8.528523445129395 4.390457630157471 0.04189522936940193
