14
Generated by QM7 dataset
N 1.889726161956787 0.0 0.0
C 4.064819812774658 0.0 0.0
C 6.79358434677124 0.0 0.0
C 7.911527633666992 2.105494976043701 1.5817952156066895
C 10.517781257629395 1.0929609537124634 2.169008731842041
O 10.283965110778809 -1.599010705947876 2.335191249847412
C 7.8954267501831055 -2.326120615005493 1.2639622688293457
H 7.527251720428467 0.14201292395591736 -1.9337756633758545
H 6.846515655517578 2.3585293292999268 3.3438515663146973
H 7.96368408203125 3.931424140930176 0.6125736236572266
H 11.84949016571045 1.5202280282974243 0.6433572769165039
H 11.280001640319824 1.8391193151474 3.93869948387146
H 8.19825553894043 -3.8749213218688965 -0.07460638880729675
H 6.712628364562988 -3.04028582572937 2.808586597442627
