18
Generated by QM7 dataset
C 1.32163667678833 2.025616407394409 -0.7538684606552124
N -0.816437304019928 0.4755684733390808 0.055784717202186584
C 1.6534537076950073 -0.7294154167175293 -0.1458112746477127
C 2.9748635292053223 -1.6869207620620728 2.186394214630127
C 2.5286426544189453 -0.4771369397640228 4.826228141784668
C 2.9390153884887695 -3.1278181076049805 5.964391231536865
C 2.078566551208496 -4.207324028015137 3.400562286376953
H 1.3425558805465698 2.6094093322753906 -2.71396803855896
H 1.9768613576889038 3.4165492057800293 0.5947723984718323
H -1.936062216758728 0.0029857673216611147 -1.444563388824463
H 1.9170705080032349 -2.043663263320923 -1.6948386430740356
H 5.011477947235107 -1.7637192010879517 1.7573130130767822
H 0.6196789741516113 0.262898713350296 5.1424174308776855
H 3.90201997756958 0.9572596549987793 5.396283149719238
H 4.915102005004883 -3.541327953338623 6.423746109008789
H 1.753231167793274 -3.6050305366516113 7.585738658905029
H 3.06978440284729 -5.9073405265808105 2.7716801166534424
H 0.036131564527750015 -4.5353617668151855 3.2753489017486572
