14
Generated by QM7 dataset
C 1.9057509899139404 -0.03441191464662552 -0.003628274193033576
N 4.654716491699219 0.024075111374258995 0.05943188816308975
C 5.594912052154541 2.618555784225464 0.0
C 8.323677062988281 2.618555784225464 0.0
C 10.572752952575684 2.618555784225464 0.0
C 13.46904182434082 2.619028091430664 -0.0015495754778385162
C 15.733519554138184 2.6188201904296875 -0.0020031097810715437
H 1.2571402788162231 -1.99736487865448 0.05463198199868202
H 1.1657909154891968 0.8278890252113342 -1.732784390449524
H 1.0979686975479126 0.9354900121688843 1.6356713771820068
H 5.351024150848389 -0.924302875995636 -1.4657282829284668
H 4.90109920501709 3.6573381423950195 1.652414321899414
H 4.898869514465332 3.595090627670288 -1.6897175312042236
H 17.747419357299805 2.6161367893218994 0.0005102260620333254
