20
Generated by QM7 dataset
C 4.91856050491333 -3.30292010307312 0.15556225180625916
N 7.127460956573486 -1.7215216159820557 -0.29727283120155334
C 6.458441257476807 0.9664059281349182 -0.18105466663837433
C 8.810186386108398 2.5715770721435547 -0.6806793808937073
C 8.260502815246582 5.3887810707092285 -0.42019951343536377
O 6.440980434417725 6.127323627471924 -2.2691452503204346
C 5.906490325927734 8.757671356201172 -2.136486530303955
H 5.4709272384643555 -5.29389762878418 0.07379380613565445
H 3.454967498779297 -2.9890553951263428 -1.2720880508422852
H 4.121738433837891 -2.954737901687622 2.0322115421295166
H 7.83652400970459 -2.117475986480713 -2.0462143421173096
H 5.703212261199951 1.4182016849517822 1.6947442293167114
H 4.996171474456787 1.3957139253616333 -1.585026741027832
H 9.501562118530273 2.186791181564331 -2.59708833694458
H 10.315353393554688 2.0582141876220703 0.6464942097663879
H 10.00989818572998 6.4579691886901855 -0.716905415058136
H 7.5384955406188965 5.809547424316406 1.4756115674972534
H 4.49458122253418 9.206480979919434 -3.5751161575317383
H 7.612534999847412 9.861063003540039 -2.5174553394317627
H 5.139166831970215 9.247847557067871 -0.2806621193885803
