17
Generated by QM7 dataset
C 1.6759225130081177 0.12022437900304794 0.17685946822166443
C 4.534341335296631 0.08486760407686234 0.028799425810575485
C 5.94715690612793 1.9229475259780884 1.7658545970916748
O 7.5982866287231445 -0.07823466509580612 2.6437456607818604
C 5.90781307220459 -1.9725149869918823 1.5766173601150513
C 7.07042932510376 -4.0256266593933105 0.05289343371987343
C 9.4935302734375 -3.9605824947357178 -0.6708149909973145
H 0.8755857348442078 -1.482093334197998 -0.8581435084342957
H 0.9265138506889343 1.8562023639678955 -0.6621600389480591
H 1.0067894458770752 0.015911493450403214 2.132215738296509
H 5.179985046386719 0.22826002538204193 -1.938292145729065
H 4.863720417022705 2.730314016342163 3.332097291946411
H 6.99708890914917 3.4165492057800293 0.7981069087982178
H 4.757649898529053 -2.7860231399536133 3.1013052463531494
H 5.879637241363525 -5.61490535736084 -0.46065855026245117
H 10.731282234191895 -2.40061354637146 -0.17081233859062195
H 10.30174732208252 -5.487424373626709 -1.7755489349365234
