14
Generated by QM7 dataset
C 1.889726161956787 0.0 0.0
C 4.618490695953369 0.0 0.0
C 6.86756706237793 0.0 0.0
C 9.596331596374512 0.0 0.0
C 10.61447811126709 2.651966094970703 0.005688075441867113
N 12.096156120300293 3.4419660568237305 1.7867927551269531
O 12.76430606842041 5.9523725509643555 1.2896058559417725
H 1.1451929807662964 1.9291836023330688 0.022053103893995285
H 1.1450228691101074 -0.9836024641990662 1.6596708297729492
H 1.1450228691101074 -0.9454110860824585 -1.681723952293396
H 10.313974380493164 -0.9298019409179688 -1.7039849758148193
H 10.336801528930664 -1.0245150327682495 1.6381280422210693
H 10.074186325073242 3.881610870361328 -1.5936437845230103
H 13.82249641418457 6.374972343444824 2.739271402359009
