13
Generated by QM7 dataset
C 1.7696529626846313 -0.27436932921409607 -0.009429733268916607
C 4.518051624298096 0.1298430860042572 -0.003666068660095334
C 6.100508213043213 2.1873013973236084 0.009713192470371723
N 5.497742652893066 4.629980087280273 0.02520894631743431
N 8.560629844665527 1.461835503578186 0.008711637929081917
C 8.409111022949219 -1.0177875757217407 -0.00020786987442988902
O 6.021763324737549 -1.981245517730713 -0.008843918330967426
H 0.7474055886268616 1.5213618278503418 0.008957302197813988
H 1.1941556930541992 -1.356785535812378 1.655003309249878
H 1.1965179443359375 -1.3211452960968018 -1.6972386837005615
H 6.888713359832764 5.944077014923096 -0.03339146077632904
H 3.7095324993133545 5.296297550201416 -0.05723980441689491
H 9.938088417053223 -2.3724377155303955 0.0011338356416672468
