14
Generated by QM7 dataset
C 1.9025763273239136 -0.1544095277786255 0.0004913287702947855
C 4.724712371826172 0.047696687281131744 -0.5441655516624451
C 5.488936424255371 -1.6639416217803955 -2.6997950077056885
O 4.356839179992676 -3.609433650970459 -3.2679600715637207
C 5.4519734382629395 2.7648961544036865 -1.0576040744781494
N 5.424610137939453 4.3310441970825195 0.9907456040382385
O 6.070764064788818 3.5661211013793945 -3.1403846740722656
H 1.337491512298584 1.0736100673675537 1.5667341947555542
H 1.377629280090332 -2.0942511558532715 0.49726253747940063
H 0.7861827611923218 0.3913622796535492 -1.657100796699524
H 5.807846546173096 -0.583604097366333 1.1074551343917847
H 7.302639007568359 -1.2020736932754517 -3.6259310245513916
H 5.001538276672363 3.756246328353882 2.76249623298645
H 5.920719623565674 6.159146785736084 0.7190030217170715
