18
Generated by QM7 dataset
C 1.7905911207199097 0.2738402187824249 -1.6404523849487305
C 4.563084125518799 0.14443176984786987 -1.1297727823257446
C 6.074392318725586 2.1737897396087646 -0.9403843879699707
C 8.798149108886719 2.106194257736206 -0.42467814683914185
C 10.554120063781738 1.0196017026901245 -2.383190393447876
C 10.518064498901367 3.815716028213501 -1.9295616149902344
N 12.683785438537598 5.020378589630127 -0.7068898677825928
H 1.3499069213867188 -0.7313995957374573 -3.3924553394317627
H 1.118547797203064 2.22192120552063 -1.8276108503341675
H 0.7479724884033203 -0.6217954754829407 -0.09592249989509583
H 5.367521286010742 -1.733219027519226 -0.9096196889877319
H 5.244386672973633 4.044429779052734 -1.1517881155014038
H 9.26848316192627 1.7665727138519287 1.542054295539856
H 9.773285865783691 0.33937591314315796 -4.152616500854492
H 12.164620399475098 -0.06340031325817108 -1.7310458421707153
H 9.668670654296875 4.9528398513793945 -3.4189682006835938
H 13.453678131103516 3.8839919567108154 0.6436974406242371
H 12.134177207946777 6.626626968383789 0.20426049828529358
