15
Generated by QM7 dataset
C 2.4624831676483154 0.6907327175140381 -1.2988276481628418
C 4.796503067016602 -0.838206946849823 -0.6372345685958862
O 6.934293270111084 0.8033414483070374 -0.7443820238113403
C 9.247563362121582 -0.22491520643234253 -0.21737520396709442
C 9.83649730682373 -2.603513479232788 0.42692694067955017
C 12.38320541381836 -3.317244052886963 0.8980545401573181
C 14.5289888381958 -3.9320287704467773 1.293441891670227
H 0.770573616027832 -0.49546730518341064 -1.264472484588623
H 2.651115655899048 1.5325300693511963 -3.1796531677246094
H 2.2115087509155273 2.250814914703369 0.0370953232049942
H 5.013651371002197 -2.3800911903381348 -2.00360107421875
H 4.588103771209717 -1.6151111125946045 1.2715966701507568
H 10.671472549438477 1.241909146308899 -0.399525910615921
H 8.411020278930664 -4.061115741729736 0.6104571223258972
H 16.435609817504883 -4.474890232086182 1.64202082157135
