12
Generated by QM7 dataset
C 1.9136122465133667 -0.01003444567322731 -0.013228083029389381
N 4.63767147064209 0.06281449645757675 0.0011149384081363678
C 6.138718605041504 2.1601459980010986 0.006425068713724613
C 8.586858749389648 1.2876026630401611 0.020049994811415672
C 8.35744571685791 -1.360980749130249 0.02175074815750122
N 5.949670314788818 -2.115661859512329 0.009921061806380749
H 1.173444390296936 1.9179397821426392 0.0007747877389192581
H 1.27919340133667 -1.0206032991409302 1.6726911067962646
H 1.2970324754714966 -0.9898574352264404 -1.7236758470535278
H 5.363439559936523 4.049626350402832 0.00017007534916047007
H 10.296833992004395 2.402937889099121 0.02759000100195408
H 9.839860916137695 -2.770073890686035 0.030991507694125175
