16
Generated by QM7 dataset
C 2.0454962253570557 -0.41112881898880005 -0.6168633103370667
C 4.828495979309082 -0.38404902815818787 0.12494869530200958
C 5.95479154586792 2.2873244285583496 0.05610596761107445
O 4.640487194061279 3.856590986251831 1.8060301542282104
C 8.7170991897583 2.510312080383301 0.6889563798904419
C 10.3189058303833 0.6624624133110046 1.3476581573486328
H 1.3232240676879883 -2.349175214767456 -0.5958306789398193
H 1.7804999351501465 0.35141345858573914 -2.520951271057129
H 0.9044418334960938 0.7049812078475952 0.6977813839912415
H 5.869924068450928 -1.6299077272415161 -1.1624083518981934
H 4.984039306640625 -1.1764111518859863 2.0348381996154785
H 5.6639814376831055 3.0942564010620117 -1.8292548656463623
H 5.042979717254639 3.2300333976745605 3.4863369464874268
H 9.460025787353516 4.42794942855835 0.5758184790611267
H 9.745128631591797 -1.299507975578308 1.500196933746338
H 12.285676956176758 1.0911089181900024 1.7531745433807373
