16
Generated by QM7 dataset
C 4.373223304748535 -1.0263102054595947 -2.699908494949341
C 4.3147172927856445 0.16397154331207275 -0.08551010489463806
C 6.096275329589844 2.411233901977539 0.02082478255033493
C 5.268386363983154 4.897414207458496 -1.2841633558273315
C 5.840463161468506 6.093535423278809 1.303986668586731
O 6.30138635635376 8.15346908569336 2.1551382541656494
N 5.844752788543701 3.7804348468780518 2.435044288635254
H 3.1426522731781006 -2.687114953994751 -2.7625339031219482
H 6.290539264678955 -1.6214227676391602 -3.2017252445220947
H 3.728221893310547 0.310481995344162 -4.141070365905762
H 4.890233516693115 -1.2547593116760254 1.3106006383895874
H 2.372551202774048 0.7225368022918701 0.37159574031829834
H 8.076821327209473 1.8987401723861694 -0.32692262530326843
H 3.281301498413086 5.039786338806152 -1.8335256576538086
H 6.492569923400879 5.538976192474365 -2.8156919479370117
H 6.883233070373535 3.5850372314453125 4.027195453643799
