18
Generated by QM7 dataset
C 4.231323719024658 5.9849138259887695 2.9655849933624268
C 5.292064666748047 3.7242345809936523 2.5502798557281494
C 5.976768970489502 2.7417657375335693 -0.026947494596242905
C 8.788832664489746 2.103567600250244 -0.29294535517692566
C 10.453171730041504 4.3885297775268555 -0.040364548563957214
C 12.027426719665527 4.783293724060059 2.3011951446533203
N 13.194162368774414 4.026590824127197 -0.07959526777267456
H 3.7633328437805176 6.591270446777344 4.868539333343506
H 3.7989730834960938 7.272913455963135 1.4284628629684448
H 5.675225734710693 2.4897329807281494 4.149460792541504
H 5.435646057128906 4.104371547698975 -1.4930914640426636
H 4.870145320892334 1.0240426063537598 -0.37475159764289856
H 9.09073543548584 1.278456449508667 -2.1710875034332275
H 9.313213348388672 0.6461918354034424 1.086800456047058
H 9.758413314819336 6.018758773803711 -1.0659189224243164
H 11.999534606933594 3.3584024906158447 3.769833564758301
H 12.378122329711914 6.695488452911377 2.9362564086914062
H 14.069805145263672 5.526390552520752 -0.9236414432525635
