14
Generated by QM7 dataset
C 2.2562763690948486 -0.6943987607955933 0.34264513850212097
C 5.054393768310547 -0.43044182658195496 0.5434096455574036
C 6.781093120574951 -1.8785955905914307 -1.1720647811889648
N 6.620523452758789 0.885431170463562 -1.3325214385986328
N 5.210333824157715 1.4163686037063599 -3.381683826446533
C 5.900745391845703 3.5093348026275635 -4.42356538772583
H 1.3340332508087158 1.1150517463684082 0.7362750768661499
H 1.5851778984069824 -2.064091205596924 1.74111807346344
H 1.6340272426605225 -1.3567477464675903 -1.5164296627044678
H 5.644479751586914 -0.14095467329025269 2.482665538787842
H 5.989014625549316 -2.982403516769409 -2.7039713859558105
H 8.524989128112793 -2.6082944869995117 -0.3919292092323303
H 4.91171932220459 4.184930801391602 -6.123298645019531
H 7.458579063415527 4.7049078941345215 -3.708587646484375
