20
Generated by QM7 dataset
C 0.8788738250732422 -0.9388915300369263 -1.3388710021972656
C 3.6160476207733154 -1.0559033155441284 -0.47252601385116577
C 4.85413932800293 1.554129719734192 -0.5236053466796875
C 7.623060703277588 1.4115687608718872 0.3060978353023529
N 8.737299919128418 3.953118085861206 0.31070876121520996
C 11.48961067199707 3.9305925369262695 0.1340004801750183
C 9.875330924987793 4.674161911010742 -2.0947046279907227
H 0.02793015167117119 -2.8231942653656006 -1.2793257236480713
H 0.7458748817443848 -0.2360645830631256 -3.279770851135254
H -0.23309771716594696 0.30743953585624695 -0.11841023713350296
H 4.66046142578125 -2.3560726642608643 -1.701225996017456
H 3.6901438236236572 -1.8316926956176758 1.4465664625167847
H 3.8102169036865234 2.838538646697998 0.7250123023986816
H 4.733745098114014 2.3338685035705566 -2.4409403800964355
H 8.647480964660645 0.07976534217596054 -0.9129077792167664
H 7.722517013549805 0.6564719676971436 2.2331459522247314
H 12.46077823638916 2.13187575340271 0.08044563978910446
H 12.457206726074219 5.415520668029785 1.1540746688842773
H 9.750646591186523 6.661549091339111 -2.570991277694702
H 9.726968765258789 3.3873908519744873 -3.6793155670166016
