15
Generated by QM7 dataset
C 8.312602996826172 -0.957996666431427 -1.5777134895324707
O 6.06541633605957 -0.028799425810575485 -0.42904341220855713
C 6.0409255027771 2.457834482192993 0.28948715329170227
C 7.854211807250977 4.205906867980957 0.035451263189315796
C 7.482389450073242 6.840373992919922 0.9423497319221497
N 5.249338150024414 7.746063232421875 1.8375319242477417
N 9.323039054870605 8.45620346069336 0.8886058926582336
H 8.014687538146973 -2.9506561756134033 -2.0408287048339844
H 9.911896705627441 -0.8373187780380249 -0.27021193504333496
H 8.71980094909668 0.053422559052705765 -3.3360469341278076
H 4.230737686157227 2.843508720397949 1.1704775094985962
H 9.667479515075684 3.78701114654541 -0.8096720576286316
H 3.6723804473876953 7.138969421386719 0.9435969591140747
H 5.312605857849121 9.657710075378418 1.9951539039611816
H 10.943819999694824 7.647400379180908 0.21066667139530182
