16
Generated by QM7 dataset
C 4.88299560546875 -0.9740782380104065 -2.465280055999756
O 4.967334270477295 -0.3371838331222534 0.14099246263504028
C 5.352044582366943 2.3127601146698 0.5030450820922852
O 7.797463417053223 3.097450017929077 -0.33200597763061523
N 8.01130485534668 5.727514266967773 -0.03737878426909447
C 10.238044738769531 6.408514976501465 -0.7737294435501099
C 11.030917167663574 9.119610786437988 -0.6786006689071655
H 4.519790172576904 -3.001319646835327 -2.6230344772338867
H 6.690613269805908 -0.5644422769546509 -3.3806633949279785
H 3.3544907569885254 0.0421597883105278 -3.416492462158203
H 5.192022323608398 2.6843371391296387 2.531930685043335
H 3.8731260299682617 3.3773186206817627 -0.48458248376846313
H 11.633172988891602 5.039086818695068 -1.5039007663726807
H 9.537769317626953 10.302824974060059 0.11689846217632294
H 11.474493026733398 9.75333023071289 -2.5938947200775146
H 12.73399543762207 9.27630615234375 0.4797825813293457
