8
Generated by QM7 dataset
O 1.8183701038360596 0.14242865145206451 0.0
N 4.455785274505615 -0.09127376973628998 -0.0
C 5.441352844238281 2.1306283473968506 0.0
C 8.15156078338623 2.064544677734375 0.0
C 10.421537399291992 2.020948648452759 0.0
H 1.2686676979064941 -1.61830472946167 -0.0
H 4.415269374847412 3.939757823944092 0.0
H 12.433623313903809 1.9624049663543701 -0.0
