14
Generated by QM7 dataset
N 5.137296199798584 -2.5176820755004883 -1.9943791627883911
C 5.7468461990356445 -0.915988028049469 -0.0809180736541748
O 5.641002655029297 -1.563086986541748 2.134256601333618
C 6.5378289222717285 1.6236904859542847 -0.9413481950759888
C 7.2781291007995605 3.3518829345703125 0.7570053935050964
C 8.078730583190918 5.8660688400268555 0.060773592442274094
C 8.844674110412598 7.578803539276123 1.755914568901062
H 5.229496002197266 -2.0619935989379883 -3.8432304859161377
H 4.597779273986816 -4.287202835083008 -1.5128391981124878
H 6.498654842376709 2.0234432220458984 -2.945572853088379
H 7.292169570922852 2.8724403381347656 2.760152816772461
H 8.054390907287598 6.377258777618408 -1.9303174018859863
H 8.90954875946045 7.172323226928711 3.7659785747528076
H 9.433418273925781 9.450047492980957 1.1565123796463013
