19
Generated by QM7 dataset
C 2.025162696838379 0.06451524794101715 0.5133818984031677
C 4.594245433807373 0.43216148018836975 -0.7788317203521729
C 5.020095348358154 -1.1406387090682983 -3.1332414150238037
C 3.3863136768341064 -2.7051050662994385 -4.272274017333984
C 5.101958274841309 3.219620943069458 -1.3144745826721191
C 3.3114237785339355 4.591562271118164 -3.053041458129883
C 7.0862274169921875 4.424718379974365 -0.2814180254936218
H 1.8746082782745361 1.2510175704956055 2.2052347660064697
H 1.780726671218872 -1.9026707410812378 1.1155431270599365
H 0.4426305592060089 0.5423514246940613 -0.7339507341384888
H 6.009555816650391 -0.23432603478431702 0.5887252688407898
H 6.899938106536865 -0.9648563861846924 -3.9577667713165283
H 1.4809973239898682 -3.0074236392974854 -3.5809555053710938
H 3.9405136108398438 -3.7357051372528076 -5.958401203155518
H 1.4158961772918701 4.674256324768066 -2.233694076538086
H 3.2001378536224365 3.6490800380706787 -4.889741897583008
H 3.9180068969726562 6.540342330932617 -3.3987858295440674
H 8.398490905761719 3.4642460346221924 0.9699397087097168
H 7.457879543304443 6.408155918121338 -0.6607049703598022
