15
Generated by QM7 dataset
N 1.7249987125396729 -0.027344336733222008 -0.7094599008560181
C 4.383692264556885 0.06275780498981476 0.03913622722029686
C 6.232278823852539 -1.5385583639144897 -1.3964320421218872
C 6.2959818840026855 1.2980151176452637 -1.6821019649505615
C 8.284124374389648 2.9552104473114014 -0.6000636219978333
N 9.874216079711914 1.9522005319595337 1.160386323928833
O 8.469430923461914 5.161862373352051 -1.2620913982391357
H 0.8456146717071533 1.642001986503601 -0.3077796995639801
H 0.7720287442207336 -1.3822591304779053 0.2757488489151001
H 4.693607330322266 0.2555665671825409 2.062730550765991
H 5.542302131652832 -2.6210124492645264 -2.996670961380005
H 7.695437431335449 -2.5079121589660645 -0.3506764769554138
H 5.590471267700195 2.011840343475342 -3.475111961364746
H 9.767200469970703 0.15992751717567444 1.7908934354782104
H 11.214654922485352 3.106010675430298 1.8834333419799805
