9
Generated by QM7 dataset
O 1.6399610042572021 0.24694940447807312 0.0
N 4.276998043060303 0.01880277507007122 -0.0
C 5.255555152893066 2.2421412467956543 0.0
C 7.959488868713379 2.1616954803466797 0.0
C 10.226800918579102 2.0752973556518555 -0.0
C 13.119915008544922 1.9488368034362793 -0.0
N 15.31078815460205 1.8693360090255737 -0.0
H 1.0887279510498047 -1.5141431093215942 -0.0
H 4.228507995605469 4.051270484924316 0.0
