14
Generated by QM7 dataset
C 0.3855608105659485 0.8812170624732971 -0.7500134110450745
C 2.8973469734191895 -0.29551535844802856 -0.2099296748638153
N 4.7741851806640625 1.059134840965271 0.5679193735122681
O 6.873576641082764 -0.5316933393478394 0.9181234240531921
C 8.963235855102539 0.952705442905426 1.7750765085220337
C 11.163349151611328 -0.6926602125167847 2.164454460144043
C 12.965543746948242 -2.035064935684204 2.4853110313415527
H -0.10145939886569977 0.5387797951698303 -2.7277441024780273
H 0.42537733912467957 2.9132585525512695 -0.38586318492889404
H -1.0417115688323975 -0.011565123684704304 0.44650450348854065
H 3.06369948387146 -2.354372024536133 -0.5078260898590088
H 8.45026969909668 1.8891592025756836 3.5491702556610107
H 9.395227432250977 2.399064064025879 0.3577440679073334
H 14.559602737426758 -3.2323954105377197 2.7680141925811768
