19
Generated by QM7 dataset
C 2.872251510620117 -1.9869147539138794 0.06889941543340683
C 5.671370506286621 -1.3370190858840942 0.0582035630941391
C 6.0946125984191895 1.5190752744674683 0.23338118195533752
C 8.885209083557129 2.2350924015045166 0.09569573402404785
C 10.288822174072266 1.337510347366333 2.3996875286102295
N 12.085365295410156 -0.31227725744247437 2.19212007522583
N 13.124506950378418 -0.9327688217163086 4.440723896026611
H 2.6135857105255127 -4.036757469177246 -0.022960172966122627
H 1.9103997945785522 -1.144871711730957 -1.5569831132888794
H 1.9583042860031128 -1.3008496761322021 1.7929154634475708
H 6.534483909606934 -2.0739176273345947 -1.6749398708343506
H 6.583484649658203 -2.29386305809021 1.6527166366577148
H 5.269897937774658 2.232201099395752 1.9961555004119873
H 5.097536087036133 2.4529778957366943 -1.3254538774490356
H 9.060877799987793 4.297123908996582 0.03915512561798096
H 9.761739730834961 1.468109369277954 -1.6150544881820679
H 9.705406188964844 2.140927314758301 4.238088607788086
H 14.81269359588623 -1.8246439695358276 4.1243462562561035
H 12.04660701751709 -2.2732272148132324 5.326627731323242
