12
Generated by QM7 dataset
C 1.829727292060852 -0.21098792552947998 0.13726970553398132
C 4.469013214111328 0.1536158323287964 -0.8407769799232483
O 5.35304594039917 -1.1715357303619385 -2.5276975631713867
C 6.006362438201904 2.25797700881958 0.1998196393251419
C 4.903858184814453 4.476005554199219 1.606626272201538
O 6.043004035949707 2.4005191326141357 2.916433334350586
H 0.6184884905815125 1.3167989253997803 -0.5459418892860413
H 1.8197684288024902 -0.26435378193855286 2.2018332481384277
H 1.084665060043335 -2.0102906227111816 -0.5547857880592346
H 7.786276340484619 2.564434051513672 -0.7673799991607666
H 2.8776559829711914 4.694400787353516 1.7588436603546143
H 5.932682037353516 6.245923042297363 1.5711183547973633
