13
Generated by QM7 dataset
C 1.8373240232467651 -0.016081569716334343 -0.07519220560789108
C 4.7136759757995605 0.005329027771949768 0.002872383687645197
C 5.837628364562988 -1.4217543601989746 -2.227722644805908
C 5.636297225952148 2.7089412212371826 -0.045410118997097015
O 6.881721019744873 3.659738063812256 1.6650187969207764
H 1.051783800125122 1.0367226600646973 1.5250656604766846
H 1.1123872995376587 -1.9514634609222412 0.012018658220767975
H 1.1207209825515747 0.8647575974464417 -1.8069372177124023
H 5.358318328857422 -0.8643040657043457 1.770049810409546
H 5.253911018371582 -0.5883662104606628 -4.031012535095215
H 5.243234157562256 -3.4026787281036377 -2.209807872772217
H 7.90610408782959 -1.3710907697677612 -2.1634528636932373
H 5.124313831329346 3.8200435638427734 -1.735845685005188
