15
Generated by QM7 dataset
O 2.0087223052978516 -0.38486161828041077 0.2664135992527008
C 4.556583404541016 0.30588996410369873 -0.15287885069847107
C 5.109781742095947 2.7076940536499023 1.2586331367492676
C 6.95619535446167 2.307960271835327 2.953528642654419
C 7.905007839202881 -0.3044537901878357 2.967210292816162
C 6.196109771728516 -2.4439828395843506 3.7182817459106445
C 6.322683334350586 -1.6466128826141357 0.9809568524360657
H 1.881581425666809 -2.1717300415039062 -0.12674392759799957
H 4.89344596862793 0.5414443612098694 -2.180006980895996
H 4.119962215423584 4.464099884033203 0.9538770318031311
H 7.677314758300781 3.739276647567749 4.226353645324707
H 9.931285858154297 -0.578029453754425 2.9493143558502197
H 7.070750713348389 -4.220759868621826 4.240715503692627
H 4.498984336853027 -2.0155818462371826 4.785882472991943
H 7.254205226898193 -2.8413355350494385 -0.3861466348171234
