15
Generated by QM7 dataset
C 2.1150381565093994 -0.26599785685539246 -0.0029857673216611147
C 4.912229537963867 -0.016157157719135284 -0.19343236088752747
N 6.207939147949219 -0.738675057888031 -2.519080638885498
C 6.08055305480957 1.96724271774292 -1.8740036487579346
C 8.479351997375488 3.272930145263672 -1.1467236280441284
O 10.284305572509766 2.9177560806274414 -3.1073334217071533
H 1.3938052654266357 0.9750797748565674 1.4869499206542969
H 1.6016751527786255 -2.2115843296051025 0.4788565933704376
H 1.1579296588897705 0.23404258489608765 -1.7694640159606934
H 5.859247207641602 -0.524380087852478 1.5500856637954712
H 4.9475297927856445 -1.1540557146072388 -3.923600673675537
H 4.907203197479248 3.113342761993408 -3.0971100330352783
H 9.276627540588379 2.524730920791626 0.6115720868110657
H 8.162407875061035 5.30170202255249 -0.9011536836624146
H 10.170978546142578 1.1212501525878906 -3.5195205211639404
