22
Generated by QM7 dataset
C 5.515203475952148 -1.6697242259979248 -1.9098328351974487
C 4.6315107345581055 -0.064080610871315 0.3077230155467987
C 5.610389232635498 2.6827874183654785 0.2455132156610489
C 4.2980499267578125 4.191790580749512 2.3425233364105225
C 8.515710830688477 2.7963411808013916 0.48288172483444214
C 9.585957527160645 5.4826812744140625 0.39759838581085205
N 12.343917846679688 5.407829284667969 0.42704030871391296
H 4.570359230041504 -3.5104119777679443 -1.869676113128662
H 7.550797462463379 -2.0197958946228027 -1.8374751806259155
H 5.065372943878174 -0.7605580687522888 -3.7125749588012695
H 5.198504447937012 -0.9805033206939697 2.078245162963867
H 2.558046579360962 -0.045334529131650925 0.2866714596748352
H 5.065392017364502 3.5233187675476074 -1.5714017152786255
H 4.909962177276611 3.5584867000579834 4.2155256271362305
H 2.2419145107269287 3.9737915992736816 2.234034299850464
H 4.69587516784668 6.2142510414123535 2.1785519123077393
H 9.366540908813477 1.7147753238677979 -1.0667126178741455
H 9.101507186889648 1.8727185726165771 2.2459583282470703
H 8.942996978759766 6.585941314697266 2.024085760116577
H 8.95543098449707 6.447122097015381 -1.321372151374817
H 12.949972152709961 4.555997371673584 2.0451183319091797
H 13.029945373535156 7.207075119018555 0.47515273094177246
