16
Generated by QM7 dataset
C 3.560187339782715 -0.9587903618812561 -2.4228556156158447
C 5.043962478637695 -0.25339338183403015 -0.06483650207519531
C 5.783374786376953 2.485783576965332 -0.08579356968402863
C 8.188863754272461 3.2789394855499268 -0.04444636031985283
C 8.764304161071777 6.0080060958862305 -0.05466977879405022
N 11.066916465759277 6.827542781829834 -0.0051022605039179325
O 11.035811424255371 9.472932815551758 -0.02834589220583439
H 3.030024766921997 -2.9574592113494873 -2.3613829612731934
H 4.6818342208862305 -0.6462107300758362 -4.133889198303223
H 1.8235290050506592 0.15669609606266022 -2.5775675773620605
H 6.712949752807617 -1.4722667932510376 0.07953857630491257
H 3.88376522064209 -0.6158617734909058 1.611917495727539
H 4.241074562072754 3.8454792499542236 -0.11623705178499222
H 9.787156105041504 1.9990278482437134 -0.001719650812447071
H 7.134604454040527 7.31138801574707 -0.10616481304168701
H 12.831731796264648 9.886442184448242 0.015798110514879227
