13
Generated by QM7 dataset
C 3.2032558917999268 -0.8585970401763916 0.3295304477214813
O 1.6484837532043457 -3.106501817703247 0.055104415863752365
C -0.33926254510879517 -1.6307202577590942 -1.1277697086334229
C -2.6567091941833496 -1.0308266878128052 0.5245690941810608
N -2.5654544830322266 1.1863889694213867 1.5525989532470703
N -0.26767972111701965 2.2229793071746826 0.951193630695343
C 1.2195537090301514 0.8059492707252502 -0.9464693069458008
H 4.968694686889648 -1.0594561100006104 -0.7314751744270325
H 3.6403872966766357 -0.4654962420463562 2.3125712871551514
H -0.7667374610900879 -2.2975668907165527 -3.0348246097564697
H -4.245232105255127 -2.358604907989502 0.6854225397109985
H -0.34277743101119995 4.1443772315979 0.8103334903717041
H 1.6864861249923706 1.7630200386047363 -2.7104341983795166
