17
Generated by QM7 dataset
C 2.800290584564209 -0.35188591480255127 2.224566698074341
C 4.478518486022949 0.22697500884532928 -0.034033969044685364
C 6.33182954788208 2.276458501815796 0.5539543032646179
O 6.723872184753418 4.051780700683594 -1.4607961177825928
C 5.498744010925293 4.994508266448975 0.7677768468856812
C 7.001643180847168 6.848764419555664 2.253800868988037
O 6.178761959075928 9.333206176757812 1.665415644645691
H 1.5293554067611694 -1.9236088991165161 1.7933690547943115
H 1.6451388597488403 1.2885853052139282 2.7241158485412598
H 3.9283626079559326 -0.8591073155403137 3.881497383117676
H 3.29386830329895 0.7429647445678711 -1.650713562965393
H 5.5211181640625 -1.483246088027954 -0.5710185170173645
H 7.955728054046631 1.637277603149414 1.6207236051559448
H 3.501681327819824 5.422946929931641 0.6930381655693054
H 9.02673053741455 6.716653823852539 1.8585267066955566
H 6.7142157554626465 6.538698196411133 4.275826454162598
H 6.430322170257568 9.550278663635254 -0.14484751224517822
