17
Generated by QM7 dataset
C 7.301674842834473 1.419826865196228 5.102015018463135
N 6.647735118865967 0.8981679081916809 2.4766182899475098
C 6.751991271972656 3.1206369400024414 0.7800411581993103
C 4.915290832519531 5.226698875427246 1.5029937028884888
C 9.467981338500977 4.129505157470703 0.4611498713493347
O 11.124968528747559 2.089111089706421 -0.13568232953548431
H 7.174950122833252 -0.33871451020240784 6.186679840087891
H 6.0076470375061035 2.774458169937134 5.977241516113281
H 9.243084907531738 2.103472948074341 5.295485019683838
H 4.858296871185303 0.1762736588716507 2.4260871410369873
H 6.169180870056152 2.396361827850342 -1.0756698846817017
H 5.461421966552734 6.160658359527588 3.265352249145508
H 2.9942522048950195 4.490140438079834 1.7247719764709473
H 4.8619818687438965 6.672018051147461 0.022317666560411453
H 10.158354759216309 5.0444536209106445 2.182576894760132
H 9.563431739807129 5.506208419799805 -1.079392671585083
H 10.408535957336426 0.6312252283096313 0.7522810697555542
