12
Generated by QM7 dataset
C 1.857506275177002 -0.06563019007444382 0.22714507579803467
N 4.5357584953308105 0.1998574286699295 -0.45495155453681946
S 5.635730266571045 3.171111583709717 -0.2706843614578247
O 5.18667459487915 4.456786632537842 -2.6270973682403564
O 5.279970169067383 4.234214782714844 2.207162380218506
C 8.997912406921387 3.068310499191284 -0.3526984751224518
C 11.269968032836914 2.987562417984009 -0.4098060131072998
H 1.3242822885513306 -2.056305408477783 0.06349480152130127
H 0.6660528779029846 1.0216615200042725 -1.0647283792495728
H 1.5283726453781128 0.5306162238121033 2.1772100925445557
H 4.91391134262085 -0.5072214007377625 -2.2100346088409424
H 13.279105186462402 2.9337997436523438 -0.4510398209095001
