13
Generated by QM7 dataset
N 2.3653135299682617 0.0290828850120306 1.3035330772399902
C 4.4994001388549805 0.15563784539699554 0.15491974353790283
N 5.680781364440918 2.4042608737945557 -0.21316111087799072
C 5.006715774536133 4.974326133728027 0.47029614448547363
C 7.50053071975708 5.819241523742676 -0.7869008779525757
C 7.910714626312256 2.9946680068969727 -1.3573524951934814
O 9.494834899902344 1.7070084810256958 -2.379713296890259
H 1.7909501791000366 -1.8219983577728271 1.3892889022827148
H 5.5069074630737305 -1.5045243501663208 -0.5987219214439392
H 4.902781009674072 5.2802348136901855 2.5108602046966553
H 3.284721851348877 5.644347190856934 -0.45396891236305237
H 7.289618492126465 6.992251396179199 -2.4726309776306152
H 8.906335830688477 6.628743648529053 0.4900059998035431
