16
Generated by QM7 dataset
C 4.881124973297119 -1.0487791299819946 2.3768975734710693
C 4.469051361083984 0.3432309627532959 -0.10932065546512604
C 5.524727821350098 3.002018928527832 -0.0691828727722168
C 3.9805946350097656 4.977179527282715 0.3431553542613983
C 8.200182914733887 3.4620916843414307 -0.5323547720909119
C 9.975543022155762 1.7259435653686523 -1.0098319053649902
H 4.03825044631958 -2.9358596801757812 2.2811262607574463
H 3.995882511138916 -0.0379645973443985 3.9514551162719727
H 6.89126443862915 -1.2738076448440552 2.8073959350585938
H 2.4288082122802734 0.40099987387657166 -0.48456358909606934
H 5.274584770202637 -0.742171049118042 -1.6797019243240356
H 1.9745370149612427 4.708441734313965 0.6820966601371765
H 4.658647537231445 6.913166046142578 0.36804306507110596
H 8.803156852722168 5.431941986083984 -0.48972252011299133
H 9.585938453674316 -0.2822684049606323 -1.0977985858917236
H 11.91940975189209 2.3031415939331055 -1.3319734334945679
