22
Generated by QM7 dataset
C 1.7471084594726562 3.265843629837036 1.9469281435012817
N 4.474059104919434 3.5898749828338623 2.1441967487335205
C 5.777214050292969 2.3784093856811523 0.022242076694965363
C 8.69480037689209 2.7043871879577637 0.09898385405540466
C 9.835344314575195 1.4697155952453613 2.4730846881866455
C 9.820358276367188 1.400683879852295 -2.2493977546691895
C 9.425405502319336 5.519096374511719 0.03747326880693436
H 0.8254701495170593 4.2000298500061035 3.5456175804138184
H 1.2159820795059204 1.2662676572799683 1.9864801168441772
H 1.0125153064727783 4.12831449508667 0.21561774611473083
H 5.077505111694336 2.8186588287353516 3.802053451538086
H 5.066469192504883 3.1822988986968994 -1.753458023071289
H 5.322489261627197 0.3542291522026062 0.000925965781789273
H 9.236943244934082 2.4314727783203125 4.204413890838623
H 11.904688835144043 1.5357048511505127 2.422912359237671
H 9.27441692352295 -0.5175393223762512 2.6210312843322754
H 9.082666397094727 2.2361507415771484 -3.99440860748291
H 9.363649368286133 -0.6187530159950256 -2.2731704711914062
H 11.882843971252441 1.5794330835342407 -2.2913873195648193
H 8.625106811523438 6.460425853729248 -1.623822808265686
H 11.48182487487793 5.751797199249268 -0.03887166827917099
H 8.753437995910645 6.520669937133789 1.7192916870117188
