20
Generated by QM7 dataset
C 1.840820074081421 -0.11765434592962265 0.17606578767299652
C 4.750487804412842 -0.1786547154188156 0.029063988476991653
C 5.767425060272217 -1.302115797996521 2.5200443267822266
C 5.626036167144775 -1.8130977153778076 -2.261756420135498
N 4.780817985534668 -4.447678089141846 -2.211055278778076
C 5.650205612182617 2.528132200241089 -0.4410053789615631
C 7.225953578948975 3.9168920516967773 0.9745884537696838
H 1.0071483850479126 0.5717933177947998 -1.5911304950714111
H 1.19523286819458 1.1297916173934937 1.6999220848083496
H 1.055204153060913 -1.9974027872085571 0.5453938841819763
H 5.259296894073486 -0.12207631021738052 4.145454406738281
H 7.830250263214111 -1.4838318824768066 2.480133295059204
H 4.984039306640625 -3.183338165283203 2.8856685161590576
H 7.696609020233154 -1.7964303493499756 -2.381338357925415
H 4.9271016120910645 -0.9701476097106934 -4.023094654083252
H 5.594401836395264 -5.359169006347656 -0.7228391170501709
H 5.422701358795166 -5.3434271812438965 -3.7912819385528564
H 4.89877462387085 3.4150373935699463 -2.1446123123168945
H 8.075234413146973 3.22005558013916 2.704500436782837
H 7.704923629760742 5.833981513977051 0.4172515273094177
