14
Generated by QM7 dataset
C 1.9470982551574707 0.030556872487068176 -0.26960721611976624
C 4.748409271240234 0.03565913066267967 0.24572108685970306
N 5.880733013153076 2.206028461456299 0.42547184228897095
O 8.47336196899414 2.0378050804138184 1.0831342935562134
C 9.826462745666504 0.09545006603002548 -0.23039540648460388
C 8.520605087280273 -2.3857035636901855 0.09267216920852661
C 6.021876811981201 -2.453903913497925 0.45485708117485046
H 1.207497239112854 -1.8917104005813599 -0.4292701780796051
H 1.5747466087341309 1.0376107692718506 -2.0359530448913574
H 0.9702420830726624 0.9960746169090271 1.2754895687103271
H 11.712900161743164 0.0013983973767608404 0.610476016998291
H 10.026679039001465 0.5958873629570007 -2.227647066116333
H 9.63473129272461 -4.102973461151123 0.057655543088912964
H 4.940481185913086 -4.167205333709717 0.7026190757751465
