18
Generated by QM7 dataset
C 2.031984806060791 -0.2798306345939636 -0.3147716820240021
N 4.704775333404541 0.004535342566668987 0.2757110297679901
C 5.594912052154541 2.618555784225464 0.0
C 4.615259170532227 4.3105974197387695 2.1332361698150635
C 8.323677062988281 2.618555784225464 0.0
C 10.572752952575684 2.618555784225464 0.0
C 13.301517486572266 2.618555784225464 0.0
H 1.5237995386123657 -2.282127857208252 -0.2098729908466339
H 1.596346139907837 0.37917354702949524 -2.2259650230407715
H 0.8325755596160889 0.7179447412490845 1.0408989191055298
H 5.7199931144714355 -1.1008599996566772 -0.9343751072883606
H 4.946849346160889 3.387371778488159 -1.813966989517212
H 5.1382222175598145 3.5672171115875244 3.99472975730896
H 2.5575175285339355 4.502650260925293 2.0737664699554443
H 5.41295051574707 6.216386318206787 1.9842123985290527
H 14.046107292175293 4.547720432281494 -0.021883029490709305
H 14.046126365661621 1.634953260421753 -1.6596897840499878
H 14.046012878417969 1.6729556322097778 1.681705117225647
