16
Generated by QM7 dataset
C 3.4552319049835205 0.08154167979955673 -0.8406446576118469
C 1.6152244806289673 1.7624341249465942 0.5281217694282532
C -1.148481011390686 2.0389578342437744 -0.09989092499017715
C -2.6097118854522705 0.1129678264260292 1.6731635332107544
C -0.8930467963218689 -1.7663837671279907 0.08711637556552887
C -1.759486198425293 -0.00308025348931551 -2.1706905364990234
N 1.716910719871521 -1.031488060951233 0.9540471434593201
H 3.2299578189849854 -0.35704484581947327 -2.8240256309509277
H 5.417164325714111 0.15658271312713623 -0.2515414357185364
H 2.185959577560425 2.882758378982544 2.1396424770355225
H -1.934890627861023 3.926510810852051 -0.3375051021575928
H -2.2259840965270996 0.24727065861225128 3.7016522884368896
H -4.656814098358154 -0.03836144134402275 1.393673062324524
H -1.3661963939666748 -3.7693233489990234 0.06725535541772842
H -3.7450971603393555 -0.1694706380367279 -2.74580979347229
H -0.6187719106674194 0.011546226218342781 -3.891078472137451
