16
Generated by QM7 dataset
C 2.5464060306549072 -0.4656285047531128 1.940181851387024
C 5.357827186584473 -0.6787896156311035 1.4078270196914673
N 6.236738681793213 1.6809680461883545 0.2387668937444687
S 9.36695671081543 2.0238778591156006 -0.20272982120513916
C 10.3485746383667 3.2686026096343994 2.7633843421936035
O 10.4580659866333 -0.4573137164115906 -0.5444868206977844
O 9.635505676269531 3.984185218811035 -2.084178924560547
H 1.8487001657485962 -2.19321608543396 2.8379719257354736
H 1.4813562631607056 -0.17302332818508148 0.18921828269958496
H 2.1442911624908447 1.1289035081863403 3.196906328201294
H 5.68839693069458 -2.2637407779693604 0.12120703607797623
H 6.3678669929504395 -1.0182033777236938 3.1800689697265625
H 5.279006481170654 2.2546133995056152 -1.3374347686767578
H 9.321962356567383 5.019490718841553 3.128725051879883
H 12.373019218444824 3.654087781906128 2.6468827724456787
H 9.988090515136719 1.8708666563034058 4.235348701477051
