13
Generated by QM7 dataset
C 6.037712574005127 -4.406992435455322 2.495629072189331
C 6.796456813812256 -2.0174715518951416 2.1702182292938232
C 5.752742290496826 -0.37820979952812195 0.25859013199806213
C 6.5034356117248535 2.0140323638916016 -0.05911063402891159
O 5.453239440917969 3.5430097579956055 -1.937347173690796
C 6.126359939575195 6.034708023071289 -1.8583567142486572
O 7.5214691162109375 7.089515686035156 -0.35190480947494507
H 6.87520170211792 -5.573558330535889 3.9609038829803467
H 4.580544948577881 -5.2616777420043945 1.3323136568069458
H 8.264622688293457 -1.2588032484054565 3.394874095916748
H 4.2889604568481445 -1.1388812065124512 -0.96668940782547
H 7.9525346755981445 2.9133718013763428 1.072929859161377
H 5.175562858581543 7.007633686065674 -3.4340481758117676
