14
Generated by QM7 dataset
O 3.8462917804718018 0.31070876121520996 2.3077714443206787
C 4.396693706512451 2.0515055656433105 3.71319842338562
O 6.506251335144043 3.5006420612335205 3.581106662750244
C 8.199729919433594 2.833266496658325 1.5480070114135742
C 10.807419776916504 4.137442111968994 1.581814169883728
N 11.994979858398438 1.7162303924560547 0.8421753644943237
C 9.747396469116211 0.3725784122943878 1.8284801244735718
H 3.2292585372924805 2.6929731369018555 5.311887741088867
H 7.27268648147583 3.0172691345214844 -0.3020916283130646
H 11.40878677368164 4.815116882324219 3.444838523864746
H 11.054141998291016 5.667043209075928 0.21299102902412415
H 12.212960243225098 1.5227413177490234 -1.065597653388977
H 9.118382453918457 -1.2139222621917725 0.6618954539299011
H 9.973956108093262 -0.28806984424591064 3.778960943222046
