16
Generated by QM7 dataset
C 2.8999359607696533 -0.3550417423248291 1.3474503755569458
O 5.57792329788208 -0.20059442520141602 1.3166289329528809
C 6.432438850402832 1.9281631708145142 -0.09327688068151474
C 9.27692985534668 1.9650505781173706 -0.04501327499747276
C 10.575077056884766 -0.28557541966438293 -1.1865590810775757
C 10.590743064880371 3.904344320297241 0.9360569715499878
H 2.35550594329834 -2.022120237350464 2.441110372543335
H 2.162186861038208 -0.5578093528747559 -0.5740799307823181
H 2.0865979194641113 1.3189154863357544 2.249681234359741
H 5.646728515625 3.6599271297454834 0.7334216237068176
H 5.773472309112549 1.7847896814346313 -2.053262948989868
H 9.993249893188477 -0.5268934369087219 -3.158696174621582
H 10.100982666015625 -2.0103094577789307 -0.14528214931488037
H 12.636201858520508 -0.08881712704896927 -1.1628618240356445
H 9.652173042297363 5.529300689697266 1.764947533607483
H 12.642796516418457 3.9066874980926514 0.957732081413269
