14
Generated by QM7 dataset
N 1.6225566864013672 -0.0995507761836052 -0.6485729217529297
C 4.25394344329834 0.008579356595873833 0.23980624973773956
C 6.27188777923584 -1.5830047130584717 -0.9939392805099487
O 5.736887454986572 -2.7149884700775146 -3.4203665256500244
C 5.415312767028809 -0.6911484599113464 -5.202000141143799
O 5.747337341308594 1.7163437604904175 -3.9876999855041504
C 6.278407096862793 1.22909677028656 -1.3535352945327759
H 0.6791864633560181 1.5168075561523438 -0.19696615636348724
H 0.6789975166320801 -1.5597610473632812 0.17890037596225739
H 4.435640811920166 0.26767972111701965 2.2709028720855713
H 7.7152605056762695 -2.423252582550049 0.18528765439987183
H 6.831473350524902 -0.8852800130844116 -6.695375442504883
H 3.5200116634368896 -0.7908881902694702 -6.01908016204834
H 7.725767135620117 2.332961320877075 -0.4236010015010834
