18
Generated by QM7 dataset
C 1.5537139177322388 0.45846647024154663 0.01965315267443657
C 4.442500591278076 0.07315129786729813 0.02605932392179966
C 5.163487911224365 -1.4214142560958862 2.416827440261841
C 5.167456150054932 -1.4704525470733643 -2.332092046737671
C 5.720938205718994 2.707637310028076 0.0
C 8.448512077331543 2.6275696754455566 0.00173854804597795
N 10.622679710388184 2.563772439956665 0.0031369454227387905
H 0.9425575733184814 1.4959261417388916 -1.6643952131271362
H 0.9397608041763306 1.530923843383789 1.68057119846344
H 0.5537653565406799 -1.3549147844314575 0.03775672987103462
H 4.699030876159668 -0.3551929295063019 4.129637241363525
H 7.186005115509033 -1.8560512065887451 2.4678311347961426
H 4.144963264465332 -3.2232112884521484 2.503546953201294
H 4.7064385414123535 -0.43960699439048767 -4.067408561706543
H 4.1486101150512695 -3.2731945514678955 -2.3834359645843506
H 7.1899733543396 -1.9066014289855957 -2.3704347610473633
H 5.077467441558838 3.79606294631958 1.6445341110229492
H 5.078771114349365 3.7626147270202637 -1.6667006015777588
