16
Generated by QM7 dataset
C 2.117929458618164 0.47037172317504883 0.2032778412103653
C 4.9172186851501465 -0.09726420044898987 -0.15546776354312897
C 5.370601654052734 -1.4176725149154663 -2.564830780029297
N 5.70884370803833 -2.4741806983947754 -4.45822286605835
C 6.444835186004639 2.3015730381011963 -0.34780409932136536
C 7.269493103027344 3.6588311195373535 2.0233676433563232
C 9.197372436523438 2.3445076942443848 0.4058375954627991
H 1.798905849456787 1.498571753501892 1.9712110757827759
H 1.0097562074661255 -1.2774360179901123 0.2667348384857178
H 1.369295597076416 1.6339894533157349 -1.3386441469192505
H 5.582647800445557 -1.2681385278701782 1.4183717966079712
H 5.880147457122803 3.4813289642333984 -1.9321694374084473
H 6.832210540771484 2.8342113494873047 3.8477280139923096
H 7.2485737800598145 5.7089762687683105 2.012407064437866
H 10.47369384765625 3.5037033557891846 -0.7054347395896912
H 10.057576179504395 0.6333039402961731 1.133325457572937
