17
Generated by QM7 dataset
N 4.98052453994751 -1.930222988128662 -0.7785293459892273
C 4.409808158874512 0.19845904409885406 0.24339672923088074
N 5.610785961151123 2.427183151245117 -0.1678265780210495
C 4.896393775939941 4.822184085845947 0.9628154635429382
C 6.358399391174316 6.777087211608887 -0.5715098977088928
C 8.7348051071167 5.3536696434021 -1.3301970958709717
C 7.751014232635498 2.6972439289093018 -1.8746082782745361
H 3.7669990062713623 -3.295625686645508 -0.1333012878894806
H 2.8197548389434814 0.3426073491573334 1.5883715152740479
H 5.478410720825195 4.860280990600586 2.949352264404297
H 2.8579084873199463 5.160086154937744 0.8543074131011963
H 5.281160831451416 7.304566383361816 -2.2619266510009766
H 6.755733013153076 8.494488716125488 0.5063143372535706
H 9.693047523498535 6.192160129547119 -2.956986665725708
H 10.066363334655762 5.306804656982422 0.25668150186538696
H 7.109811305999756 2.541719436645508 -3.837693691253662
H 9.217724800109863 1.2792311906814575 -1.5283726453781128
