16
Generated by QM7 dataset
N 1.9671671390533447 0.011678507551550865 0.28223058581352234
C 4.6871256828308105 0.038248058408498764 -0.14972300827503204
C 5.926105499267578 2.0131442546844482 1.6043775081634521
C 7.807837963104248 -0.04559909179806709 2.464108467102051
N 10.05455207824707 0.02235545963048935 0.8486571311950684
C 5.93731164932251 -2.049842596054077 1.4598890542984009
H 1.0657110214233398 -1.4721722602844238 -0.5516677498817444
H 1.0717393159866333 1.5968375205993652 -0.3484466075897217
H 5.281954765319824 0.11328908056020737 -2.127680540084839
H 4.732138633728027 2.69055438041687 3.1626267433166504
H 6.723494529724121 3.6713788509368896 0.6568877100944519
H 8.214582443237305 -0.10695850104093552 4.488250732421875
H 9.717028617858887 0.07540006935596466 -1.0444138050079346
H 11.24679946899414 -1.4617787599563599 1.1341757774353027
H 6.7444891929626465 -3.6319024562835693 0.39693698287010193
H 4.7488627433776855 -2.842998504638672 2.9665677547454834
