15
Generated by QM7 dataset
C 1.990165114402771 0.12428728491067886 -0.0556524358689785
C 4.790191173553467 -0.055350080132484436 -0.14223968982696533
C 6.204159736633301 -2.1316299438476562 0.05589810013771057
C 8.796466827392578 -1.387663722038269 -0.12362588196992874
C 10.806833267211914 -2.9018068313598633 0.06969310343265533
C 8.752569198608398 1.4170489311218262 -0.539611279964447
O 6.126473426818848 2.1933672428131104 -0.4673859775066376
H 1.1089290380477905 -1.746598243713379 0.03424183651804924
H 1.277114748954773 1.0840791463851929 -1.7416472434997559
H 1.3919533491134644 1.1968770027160645 1.61002779006958
H 5.528979778289795 -4.036587238311768 0.322349488735199
H 12.710657119750977 -2.1552894115448 -0.07825355976819992
H 10.605161666870117 -4.918692588806152 0.38767731189727783
H 9.520705223083496 1.9247428178787231 -2.3929224014282227
H 9.771112442016602 2.4349310398101807 0.9469228386878967
