15
Generated by QM7 dataset
O 1.8190314769744873 -0.5814120173454285 -0.41972705721855164
C 4.252583026885986 0.4669702351093292 0.22873245179653168
C 6.686039924621582 -0.8555735349655151 -0.9793316721916199
C 7.949567794799805 1.786358118057251 -0.30658915638923645
C 5.351855754852295 2.6615469455718994 -1.5391819477081299
C 5.413706302642822 1.588976263999939 -4.1516337394714355
C 6.303295135498047 -0.7552101612091064 -3.7790744304656982
H 0.6542420983314514 0.831762969493866 -0.30050423741340637
H 4.335749626159668 0.8306480050086975 2.268483877182007
H 7.444103717803955 -2.5742416381835938 -0.14278770983219147
H 8.229303359985352 2.2120566368103027 1.701225996017456
H 9.679479598999023 2.279803514480591 -1.3329750299453735
H 4.721820831298828 4.602125644683838 -1.2778706550598145
H 4.846467018127441 2.4799442291259766 -5.893092155456543
H 6.62989616394043 -2.2361507415771484 -5.139601707458496
