15
Generated by QM7 dataset
C 1.9593058824539185 3.144674301147461 0.9638170003890991
C 4.471923351287842 3.4219915866851807 1.0626307725906372
C 6.161225318908691 1.6085727214813232 -0.25411146879196167
O 5.384207725524902 -0.15297332406044006 -1.538444995880127
C 8.912213325500488 2.1324048042297363 0.040345653891563416
C 10.859707832336426 0.2953642010688782 -0.953442394733429
C 10.467419624328613 2.7788045406341553 -2.2657248973846436
H 0.7136361598968506 4.46428918838501 1.9163901805877686
H 1.09052312374115 1.5967051982879639 -0.0717340037226677
H 5.32868766784668 4.968826770782471 2.091322183609009
H 9.42281723022461 3.0956737995147705 1.7813692092895508
H 10.206826210021973 -1.4024224281311035 -1.9000251293182373
H 12.577449798583984 0.03649061173200607 0.1307690441608429
H 11.922528266906738 4.206776142120361 -2.077470541000366
H 9.553699493408203 2.7444303035736084 -4.100687026977539
