15
Generated by QM7 dataset
C 0.19598349928855896 0.5604171752929688 -0.5157062411308289
C 2.8326804637908936 -0.08891161531209946 0.2641081213951111
C 4.8540449142456055 1.276037573814392 -0.42363879084587097
O 7.346253871917725 0.9042717218399048 0.14395934343338013
C 7.974908828735352 -1.2198182344436646 1.6853899955749512
C 10.724441528320312 -1.287527084350586 2.0597636699676514
C 12.976144790649414 -1.346032977104187 2.3666741847991943
H -0.6230049133300781 -1.0022540092468262 -1.5944186449050903
H 0.12103696167469025 2.2630414962768555 -1.687997817993164
H -0.974475085735321 0.8786092400550842 1.1591202020645142
H 3.018308401107788 -1.7586358785629272 1.438913106918335
H 4.697292327880859 2.951241970062256 -1.5987082719802856
H 7.367475509643555 -2.9688920974731445 0.7556447982788086
H 7.035884857177734 -1.0560545921325684 3.524962902069092
H 14.970108032226562 -1.3860763311386108 2.6294405460357666
