14
Generated by QM7 dataset
C 1.8502119779586792 0.0057258703745901585 -0.09261547774076462
C 4.729001998901367 0.03645281866192818 -0.029914364218711853
C 5.838497638702393 -2.310228109359741 1.2630552053451538
O 6.670241832733154 -1.5977823734283447 3.7655816078186035
C 6.725837707519531 1.001970648765564 3.6766133308410645
C 5.713190078735352 2.0643556118011475 1.6420586109161377
H 1.166017770767212 -1.56586492061615 -1.2531529664993286
H 1.1125762462615967 1.7632278203964233 -0.9019473791122437
H 1.0403509140014648 -0.207378551363945 1.80228853225708
H 5.458795070648193 0.20926827192306519 -1.958361029624939
H 7.498603343963623 -3.000393867492676 0.23009304702281952
H 4.488175392150879 -3.8711607456207275 1.4190897941589355
H 7.534810543060303 1.9021037817001343 5.313154220581055
H 5.560613632202148 4.068448066711426 1.296843409538269
