11
Generated by QM7 dataset
N 1.8579031229019165 0.04750771448016167 -0.016799665987491608
C 4.389947414398193 -0.012812343426048756 -0.003855041228234768
C 5.989128112792969 2.029017925262451 0.003836143994703889
O 8.434471130371094 1.2341800928115845 0.01678076758980751
C 8.37426471710205 -1.3346002101898193 0.016667384654283524
C 5.916921615600586 -2.1927437782287598 0.004025116562843323
H 0.8577467203140259 1.6843317747116089 -0.0010960411746054888
H 0.7832158803939819 -1.5404480695724487 -0.000982657540589571
H 5.720994472503662 4.052744388580322 0.0017574452795088291
H 10.19579029083252 -2.258260488510132 0.02598373405635357
H 5.329594612121582 -4.146361351013184 0.0007936849724501371
