16
Generated by QM7 dataset
O 3.757777214050293 -2.271601915359497 -1.4719077348709106
C 3.8943097591400146 0.39357325434684753 -1.138975739479065
C 5.655062198638916 1.0133090019226074 1.0607788562774658
C 8.380576133728027 0.555107057094574 0.4005841314792633
C 10.076189994812012 2.709848403930664 -0.36815643310546875
C 10.426772117614746 1.4602859020233154 2.1594090461730957
H 2.624338388442993 -2.579665184020996 -2.886953592300415
H 1.9864611625671387 1.0785423517227173 -0.728092610836029
H 4.5561676025390625 1.2520757913589478 -2.900162696838379
H 5.171670436859131 -0.16824232041835785 2.693483352661133
H 5.379823684692383 2.9930615425109863 1.6110860109329224
H 8.667380332946777 -1.2769635915756226 -0.47685348987579346
H 9.319316864013672 4.612670421600342 -0.3910221457481384
H 11.48275089263916 2.3522555828094482 -1.81493079662323
H 12.061139106750488 0.2519760727882385 2.418376922607422
H 9.887065887451172 2.506532669067383 3.836918830871582
