14
Generated by QM7 dataset
C 1.812511920928955 -0.0438605435192585 0.47857314348220825
C 4.637104511260986 -0.08743762969970703 -0.03728429600596428
C 5.506718635559082 2.285189151763916 -1.377988338470459
O 8.156001091003418 2.000917673110962 -1.785621166229248
N 8.719026565551758 -0.10716637223958969 -3.3257668018341064
C 7.243584632873535 -2.0371248722076416 -3.086452007293701
O 5.181326866149902 -2.2493033409118652 -1.5843464136123657
H 1.28714919090271 1.5660160779953003 1.6664738655090332
H 1.2262810468673706 -1.7862635850906372 1.4318643808364868
H 0.7358782291412354 0.05374380946159363 -1.2884341478347778
H 5.664794445037842 -0.3422105014324188 1.742648720741272
H 5.203341960906982 3.9677634239196777 -0.2142949402332306
H 4.570019245147705 2.563337802886963 -3.2058825492858887
H 7.529160022735596 -3.7825324535369873 -4.178959369659424
