20
Generated by QM7 dataset
C 5.5682291984558105 -1.7023786306381226 -1.7068195343017578
C 4.660159111022949 0.0231869388371706 0.4081052541732788
C 5.623692512512207 2.7592647075653076 0.15448510646820068
N 4.528464317321777 4.299448013305664 2.2033262252807617
C 8.531546592712402 2.975165843963623 0.24265973269939423
O 9.478072166442871 1.8306910991668701 2.508157968521118
C 12.152261734008789 2.0230653285980225 2.6642491817474365
H 4.683024883270264 -3.5641369819641113 -1.5302246809005737
H 7.615274906158447 -1.9776740074157715 -1.6373153924942017
H 5.06979513168335 -0.9308791160583496 -3.55948805809021
H 5.223958969116211 -0.7877323627471924 2.230613946914673
H 2.5851831436157227 0.025775864720344543 0.38263174891471863
H 4.961816310882568 3.546562433242798 -1.6417940855026245
H 5.405542850494385 3.778601884841919 3.8461217880249023
H 2.669748306274414 3.857403516769409 2.4314916133880615
H 9.09353256225586 4.971019268035889 0.1947929710149765
H 9.371983528137207 2.038749933242798 -1.40434992313385
H 12.764249801635742 1.14388906955719 4.430066108703613
H 12.738058090209961 4.005558013916016 2.675398588180542
H 13.04035758972168 1.0248363018035889 1.0868192911148071
