17
Generated by QM7 dataset
N 1.6670218706130981 -0.36656907200813293 -1.378555178642273
C 4.231814861297607 -0.11236311495304108 -0.2924540042877197
C 6.342072010040283 -1.2777950763702393 -1.8381932973861694
C 6.055552005767822 1.5357614755630493 -1.7602043151855469
C 4.353891372680664 -0.16512426733970642 2.639853000640869
C 3.100775957107544 1.821733832359314 4.2617669105529785
N 2.037370443344116 -0.7083827257156372 4.086230278015137
H 0.6268032789230347 1.1603107452392578 -0.8301944732666016
H 0.8053823709487915 -1.82819664478302 -0.4520413875579834
H 5.845414161682129 -2.2442009449005127 -3.5760233402252197
H 7.929347515106201 -2.112675905227661 -0.8507736325263977
H 7.445766448974609 2.6134157180786133 -0.7127668857574463
H 5.372529029846191 2.4726500511169434 -3.448240041732788
H 6.068137168884277 -0.9939770698547363 3.420139789581299
H 2.05057954788208 3.3116884231567383 3.332872152328491
H 3.9808404445648193 2.335569143295288 6.0348591804504395
H 2.466829538345337 -1.7578799724578857 5.647427558898926
