12
Generated by QM7 dataset
C 1.889726161956787 0.0 0.0
C 4.618490695953369 0.0 0.0
C 6.86756706237793 0.0 0.0
C 9.602529525756836 -0.0047432123683393 -0.03938189148902893
O 10.74074935913086 -2.009251356124878 -0.2751063406467438
N 10.838146209716797 2.2732839584350586 0.08004879951477051
O 9.526223182678223 4.353702068328857 1.1114046573638916
H 1.1453063488006592 1.929240345954895 0.02243104949593544
H 1.1450417041778564 -0.9838858842849731 1.6595008373260498
H 1.1450228691101074 -0.9450898170471191 -1.681894063949585
H 12.7046480178833 2.1539664268493652 0.5041978359222412
H 8.963934898376465 5.242176055908203 -0.4046281576156616
