14
Generated by QM7 dataset
O 2.6580886840820312 0.3136000633239746 1.7561036348342896
C 4.581319808959961 0.11036000400781631 0.46776390075683594
C 5.727382183074951 -2.444190740585327 -0.10181844234466553
C 7.5687689781188965 -2.394906520843506 -2.301799774169922
C 9.226493835449219 -0.07184738665819168 -2.0881662368774414
O 7.645359516143799 2.1029627323150635 -2.287173271179199
N 5.899082660675049 2.1900036334991455 -0.27777084708213806
H 4.205056190490723 -3.790374994277954 -0.4948814809322357
H 6.706637859344482 -3.0661373138427734 1.6156402826309204
H 8.70948314666748 -4.120321273803711 -2.3246843814849854
H 6.49534797668457 -2.314271926879883 -4.0729265213012695
H 10.293545722961426 -0.017328789457678795 -0.3127118945121765
H 10.580406188964844 -0.012302117422223091 -3.6506106853485107
H 5.083646774291992 3.897125482559204 0.02842148020863533
