15
Generated by QM7 dataset
C 3.5211455821990967 -0.16727855801582336 -0.13762874901294708
C 6.247472286224365 -1.0031988620758057 0.18515536189079285
C 7.99318265914917 1.2026028633117676 0.6641442775726318
O 7.3504486083984375 3.4223506450653076 0.7835371494293213
C 10.784553527832031 0.5706406235694885 1.1099684238433838
N 11.888456344604492 -1.5529580116271973 0.14898601174354553
N 12.152091979980469 2.12095308303833 2.4249720573425293
H 2.3000800609588623 -1.8034979104995728 -0.4678584039211273
H 3.326012372970581 1.1199650764465332 -1.7463525533676147
H 2.839578151702881 0.8196120262145996 1.548498272895813
H 6.86397647857666 -1.9820770025253296 -1.5291097164154053
H 6.3834757804870605 -2.3028769493103027 1.789589524269104
H 11.362356185913086 -2.052015781402588 -1.6232936382293701
H 13.799309730529785 -1.4489097595214844 0.3279997706413269
H 11.02175235748291 3.631448984146118 2.9352359771728516
