16
Generated by QM7 dataset
C 2.2130582332611084 -0.355948805809021 0.7525078654289246
C 4.7987518310546875 -0.019124029204249382 -0.5063899159431458
C 4.964216232299805 -1.5894486904144287 -2.9389777183532715
O 3.1875522136688232 -0.723179280757904 -4.75519323348999
C 5.281803607940674 2.8080952167510986 -0.9970195293426514
C 7.90315580368042 3.289181709289551 -1.7779488563537598
N 9.9882230758667 3.653388738632202 -2.359398603439331
H 2.157254695892334 0.6203781962394714 2.5767550468444824
H 1.8208645582199097 -2.357943534851074 1.0999151468276978
H 0.6866886615753174 0.40523287653923035 -0.41946250200271606
H 6.237116813659668 -0.7354058027267456 0.8071587085723877
H 4.608399391174316 -3.593956708908081 -2.5601253509521484
H 6.848216533660889 -1.4523112773895264 -3.781209707260132
H 1.6085349321365356 -1.6208181381225586 -4.466613292694092
H 4.917445182800293 3.8784360885620117 0.7410560846328735
H 3.9738106727600098 3.544748306274414 -2.4241974353790283
