15
Generated by QM7 dataset
C 1.7129989862442017 5.156722545623779 2.596975088119507
N 4.411679267883301 5.2128472328186035 2.0287344455718994
C 5.149446964263916 3.472352981567383 0.5104528069496155
N 7.570715427398682 3.111774206161499 -0.29046979546546936
C 9.517586708068848 4.972795486450195 0.17016984522342682
C 11.9304838180542 4.04059362411499 -0.842950165271759
C 13.897499084472656 3.2698497772216797 -1.6754878759384155
H 1.4250991344451904 5.71634578704834 4.567033290863037
H 0.8602222204208374 3.284684181213379 2.3584160804748535
H 0.7091575264930725 6.506969451904297 1.3947312831878662
H 3.8464620113372803 2.063391923904419 -0.31484726071357727
H 7.824373245239258 2.0465354919433594 -1.859395980834961
H 9.704556465148926 5.328611850738525 2.2013986110687256
H 9.019171714782715 6.759644985198975 -0.7499000430107117
H 15.64286994934082 2.5820462703704834 -2.4060182571411133
