14
Generated by QM7 dataset
O 1.8636667728424072 -0.28287309408187866 -0.0353945717215538
C 4.154392719268799 -0.11393158882856369 0.023073555901646614
C 6.0265069007873535 -2.282222270965576 0.11228752881288528
C 8.489027976989746 -0.7171699404716492 -0.04824470728635788
C 8.171818733215332 1.3761930465698242 -2.133803129196167
C 6.109616756439209 2.1903438568115234 -0.15915273129940033
N 8.1615571975708 1.504410982131958 1.8000208139419556
H 5.802063941955566 -3.515155076980591 -1.5274467468261719
H 5.878540992736816 -3.314976453781128 1.8932976722717285
H 10.285892486572266 -1.7219184637069702 0.05279894918203354
H 7.486622333526611 0.7451946139335632 -3.9779868125915527
H 9.765650749206543 2.673055410385132 -2.3963050842285156
H 5.4016499519348145 4.1183180809021 -0.13630594313144684
H 9.648695945739746 2.7346227169036865 1.8373807668685913
