17
Generated by QM7 dataset
C 1.7219940423965454 0.171946182847023 0.17306111752986908
C 4.584173202514648 0.010563569143414497 -0.13959406316280365
C 5.384963512420654 -1.378725290298462 -2.5513949394226074
N 4.5149149894714355 -3.9983582496643066 -2.593252182006836
C 5.632820129394531 2.6596951484680176 -0.2664513885974884
N 7.329850673675537 3.4144515991210938 1.3231295347213745
O 7.965592384338379 5.919113636016846 0.7635438442230225
H 1.230419635772705 1.3159863948822021 1.827384114265442
H 0.8868295550346375 -1.701981782913208 0.4325394034385681
H 0.8320274949073792 1.0546373128890991 -1.4749690294265747
H 5.394299030303955 -0.9390615820884705 1.5159194469451904
H 7.450471878051758 -1.3554627895355225 -2.7225852012634277
H 4.640316963195801 -0.4048360288143158 -4.222574234008789
H 5.268272876739502 -4.954219341278076 -1.0980442762374878
H 5.186599254608154 -4.870542526245117 -4.175255298614502
H 4.909073829650879 3.909578800201416 -1.7768338918685913
H 9.201586723327637 6.315408229827881 2.072953939437866
