17
Generated by QM7 dataset
C 2.501997470855713 0.492349237203598 0.6221734285354614
C 5.189471244812012 -0.12748092412948608 0.22075781226158142
C 6.334702014923096 -2.1161720752716064 -0.8605434894561768
C 9.075296401977539 -1.4888774156570435 -0.5671824216842651
C 9.283373832702637 1.4305604696273804 -1.2418713569641113
C 7.357119560241699 1.4896900653839111 1.0597772598266602
C 9.332847595214844 -0.44304630160331726 2.2365474700927734
H 1.2766801118850708 -1.066504716873169 0.03650951012969017
H 1.9778251647949219 2.168951988220215 -0.4664222002029419
H 2.138792037963867 0.8722409009933472 2.62282657623291
H 5.510913848876953 -3.766129732131958 -1.720690131187439
H 10.469404220581055 -2.8110053539276123 -1.2995457649230957
H 8.545681953430176 2.013805627822876 -3.085355758666992
H 11.124042510986328 2.331393003463745 -0.9449008703231812
H 6.964888095855713 3.264672040939331 2.0220446586608887
H 11.177257537841797 0.32089439034461975 2.7853052616119385
H 8.641547203063965 -1.6702722311019897 3.7520134449005127
