13
Generated by QM7 dataset
C 1.7477887868881226 -0.07207415252923965 -0.004932185169309378
C 4.529106616973877 0.16329123079776764 -0.0060471235774457455
C 6.121011734008789 2.2047812938690186 -0.0023054659832268953
O 5.33554744720459 4.612368106842041 0.003987322095781565
C 8.583003997802734 1.2211599349975586 -0.006481760647147894
N 8.576597213745117 -1.3040432929992676 -0.012661165557801723
N 6.09929895401001 -1.896283507347107 -0.012358808889985085
H 0.8364495038986206 1.7847707271575928 0.019161822274327278
H 1.1060566902160645 -1.1176785230636597 1.6607669591903687
H 1.101899266242981 -1.0766714811325073 -1.6941394805908203
H 6.780148506164551 5.747923374176025 0.005706972908228636
H 10.372669219970703 2.2074079513549805 -0.005423514172434807
H 5.611900806427002 -3.750633955001831 -0.01661069318652153
