18
Generated by QM7 dataset
N 2.3307504653930664 -0.6850446462631226 -0.9482457041740417
C 5.071987152099609 -0.47022056579589844 -1.1029386520385742
C 6.047369480133057 1.4822633266448975 0.7845953702926636
C 8.915369033813477 1.6496931314468384 0.6322645545005798
C 10.066740989685059 3.004607915878296 -1.6628645658493042
C 11.381404876708984 4.658534049987793 0.2969704568386078
O 9.866052627563477 3.605276107788086 2.3140451908111572
H 1.6989394426345825 -1.9085667133331299 -2.2944676876068115
H 1.514823317527771 1.017126202583313 -1.333107352256775
H 5.610332489013672 0.056805167347192764 -3.0309317111968994
H 5.91841459274292 -2.3190340995788574 -0.713862955570221
H 5.492073059082031 0.9350742697715759 2.7059743404388428
H 5.193950176239014 3.334667444229126 0.40931469202041626
H 9.837970733642578 -0.15471187233924866 1.0755376815795898
H 8.72616958618164 4.018956184387207 -2.8652405738830566
H 11.323503494262695 1.8517804145812988 -2.8265955448150635
H 13.390656471252441 4.26908016204834 0.5873268842697144
H 11.076176643371582 6.6907830238342285 0.08664394170045853
