16
Generated by QM7 dataset
C 1.8277997970581055 0.0017007534625008702 -0.0003023561730515212
C 4.663050651550293 -0.027646692469716072 0.002116493182256818
C 5.954054832458496 -2.209959030151367 0.016459515318274498
C 6.018777847290039 2.3009872436523438 0.0
C 7.14331579208374 4.248746871948242 0.0
C 8.507698059082031 6.61192512512207 0.0
N 6.75253963470459 8.728645324707031 -0.09083913266658783
H 1.0879908800125122 1.9337756633758545 0.08050233125686646
H 1.0839279890060425 -1.0192238092422485 1.6392050981521606
H 1.0927718877792358 -0.8786281943321228 -1.7236002683639526
H 4.986004829406738 -4.017803192138672 0.02250663749873638
H 8.005919456481934 -2.2463929653167725 0.023980624973773956
H 9.782696723937988 6.7103986740112305 -1.6271675825119019
H 9.670862197875977 6.774063587188721 1.7031534910202026
H 5.696900844573975 8.589674949645996 -1.6943851709365845
H 7.750428199768066 10.36539363861084 -0.2352897971868515
