15
Generated by QM7 dataset
C 1.755366563796997 0.16735415160655975 0.04327472671866417
C 4.23958158493042 0.27875348925590515 -0.4133208990097046
C 5.71492862701416 2.647317409515381 -0.19838345050811768
N 8.173311233520508 2.5669851303100586 -0.5067678689956665
C 9.01815128326416 5.227057933807373 -0.16487860679626465
C 6.631313800811768 6.85195779800415 -0.2866147756576538
N 4.706155300140381 4.996303558349609 0.25023752450942993
H 0.7604258060455322 -1.6187771558761597 -0.11861810833215714
H 0.6643710136413574 1.800398826599121 0.6230049133300781
H 5.307428359985352 -1.3908573389053345 -0.9376443028450012
H 9.950654983520508 5.404220104217529 1.6761870384216309
H 10.366433143615723 5.759337425231934 -1.6396209001541138
H 6.365428924560547 7.629391193389893 -2.1862618923187256
H 6.650815486907959 8.39206600189209 1.0898807048797607
H 2.96116304397583 5.328007221221924 -0.45655784010887146
