13
Generated by QM7 dataset
C 1.8495506048202515 -0.008617151528596878 0.007162061985582113
C 4.663258075714111 0.01205645315349102 0.003760555060580373
C 6.0314764976501465 2.2338075637817383 0.006538452580571175
N 8.574858665466309 2.334340810775757 0.006651835981756449
C 9.759604454040527 0.09325798600912094 0.0048188017681241035
N 8.645572662353516 -2.1836352348327637 0.0032314315903931856
C 6.099355697631836 -2.1647379398345947 0.0033259179908782244
H 1.1061512231826782 -1.9397282600402832 -0.022128693759441376
H 1.1224027872085571 0.9733790159225464 -1.6624109745025635
H 1.1274484395980835 0.922337532043457 1.7077643871307373
H 5.097196102142334 4.062684535980225 0.008862815797328949
H 11.808483123779297 0.12525105476379395 0.004724315367639065
H 5.228399753570557 -4.0244364738464355 0.002891280921176076
