15
Generated by QM7 dataset
C 2.160353899002075 1.226772427558899 -3.3254833221435547
C 2.932722568511963 1.968943476676941 -1.0205087661743164
C 0.8542885184288025 2.3346810340881348 0.8672897815704346
O 1.2536821365356445 2.8844778537750244 3.081122875213623
C 5.601715087890625 2.3129303455352783 -0.29812318086624146
C 7.3587260246276855 3.8290765285491943 -1.957019329071045
C 6.491927146911621 4.894825458526611 0.5202794075012207
H 3.528799057006836 0.8643796443939209 -4.811148166656494
H 0.1881789267063141 0.9497952461242676 -3.8135619163513184
H -1.0871405601501465 2.066755771636963 0.15539218485355377
H 6.399973392486572 0.7101401686668396 0.7060772776603699
H 6.638853549957275 4.705814838409424 -3.6625349521636963
H 9.305824279785156 3.2072808742523193 -2.1017911434173584
H 7.835844039916992 4.985683441162109 2.064223527908325
H 5.164980411529541 6.456343650817871 0.4923681318759918
