16
Generated by QM7 dataset
N 1.740229845046997 -0.195529967546463 0.29141467809677124
C 4.50612735748291 -0.06561128795146942 -0.20424160361289978
C 5.143078804016113 -0.009184069000184536 -2.9890365600585938
O 3.6837754249572754 1.912062644958496 -4.195796966552734
C 5.69228982925415 1.946814775466919 1.5404480695724487
O 6.2540106773376465 0.02016337774693966 3.4328010082244873
C 5.9050164222717285 -1.9383487701416016 1.5331348180770874
H 1.3191611766815186 0.002853486454114318 2.1714842319488525
H 0.9451087117195129 -1.879823923110962 -0.21552327275276184
H 4.6863884925842285 -1.8127954006195068 -3.896275043487549
H 7.145432472229004 0.3852962553501129 -3.3216094970703125
H 2.0390334129333496 1.8768759965896606 -3.3492939472198486
H 4.4373602867126465 3.415207624435425 2.2785751819610596
H 7.438094139099121 2.8231563568115234 0.8564238548278809
H 7.732778072357178 -2.616382598876953 0.8387171626091003
H 4.815400123596191 -3.5380396842956543 2.259432077407837
