18
Generated by QM7 dataset
C 1.889726161956787 0.0 0.0
C 4.618490695953369 0.0 0.0
C 6.86756706237793 0.0 0.0
C 9.596331596374512 0.0 0.0
C 10.721474647521973 2.69010066986084 -0.03282454237341881
C 10.14799976348877 4.1463236808776855 2.4034860134124756
N 13.474522590637207 2.5704054832458496 -0.3835388123989105
H 1.145419716835022 1.929240345954895 0.02596483752131462
H 1.145079493522644 -0.9868149757385254 1.6577811241149902
H 1.1449661254882812 -0.9420095682144165 -1.683594822883606
H 10.264538764953613 -1.033434510231018 -1.6697620153427124
H 10.303901672363281 -1.039443850517273 1.648993968963623
H 9.925163269042969 3.741922378540039 -1.631173849105835
H 10.879852294921875 3.1557669639587402 4.068259239196777
H 8.11178207397461 4.4077863693237305 2.6595816612243652
H 11.00493335723877 6.0318169593811035 2.3560917377471924
H 14.28867244720459 1.7132067680358887 1.1375772953033447
H 14.191219329833984 4.357991695404053 -0.4273804724216461
