19
Generated by QM7 dataset
C 10.751483917236328 -4.8037028312683105 0.14787107706069946
C 10.64501667022705 -2.7323360443115234 -1.8284423351287842
O 11.790606498718262 -0.5202605128288269 -0.8005824685096741
C 11.686690330505371 1.5584193468093872 -2.5162837505340576
C 12.4270658493042 3.9555747509002686 -1.1005197763442993
O 13.178099632263184 1.1588178873062134 -4.726186275482178
C 15.810356140136719 0.9265516400337219 -4.262012958526611
H 9.907758712768555 -6.5499420166015625 -0.568278431892395
H 9.74102783203125 -4.228885650634766 1.8602086305618286
H 12.708578109741211 -5.1848039627075195 0.7019954919815063
H 8.672615051269531 -2.342636823654175 -2.3224735260009766
H 11.663956642150879 -3.338125705718994 -3.5249061584472656
H 9.729084968566895 1.797715425491333 -3.1532914638519287
H 14.279035568237305 3.7571346759796143 -0.1956811398267746
H 11.073814392089844 4.347050189971924 0.4163822531700134
H 12.51004409790039 5.580455780029297 -2.3772754669189453
H 16.706085205078125 0.22980959713459015 -5.990545272827148
H 16.205535888671875 -0.41704365611076355 -2.7410666942596436
H 16.634050369262695 2.771963596343994 -3.8237662315368652
