16
Generated by QM7 dataset
C 1.889726161956787 0.0 0.0
C 4.618490695953369 0.0 0.0
C 6.86756706237793 0.0 0.0
C 9.572596549987793 0.033353667706251144 0.10894270986318588
N 11.014287948608398 -1.27263605594635 -1.8591314554214478
C 11.014457702636719 1.480959415435791 -1.8805420398712158
C 13.365843772888184 2.865769624710083 -1.1910754442214966
H 1.1451174020767212 1.9291647672653198 0.02199641242623329
H 1.1450228691101074 -0.9836780428886414 1.6596330404281616
H 1.1451740264892578 -0.9454488754272461 -1.6817617416381836
H 10.39332389831543 -0.07810238003730774 1.9846092462539673
H 9.809814453125 -1.979355812072754 -3.1895365715026855
H 9.993854522705078 2.3853068351745605 -3.408404588699341
H 14.409577369689941 1.935684323310852 0.33427366614341736
H 12.898797988891602 4.782367706298828 -0.5696012377738953
H 14.617182731628418 3.0112407207489014 -2.8312253952026367
