19
Generated by QM7 dataset
C 1.9204530715942383 -0.44497382640838623 0.27274417877197266
C 4.785825729370117 -0.6453414559364319 0.4653450548648834
O 5.670236587524414 -2.438861608505249 -1.3462408781051636
C 6.065888404846191 1.9170705080032349 0.021486185491085052
C 8.967884063720703 1.8539913892745972 0.12598803639411926
C 10.014641761779785 0.9736247062683105 2.6556131839752197
O 9.943965911865234 0.27790313959121704 -1.8247195482254028
H 1.1631830930709839 0.8525688648223877 1.6943473815917969
H 1.0486468076705933 -2.3032360076904297 0.5426915287971497
H 1.3416677713394165 0.2166948914527893 -1.6019397974014282
H 5.270068168640137 -1.3727915287017822 2.3387062549591064
H 4.99271297454834 -1.9503296613693237 -2.9905104637145996
H 5.359622478485107 3.2932446002960205 1.4004004001617432
H 5.529659748077393 2.5919861793518066 -1.8667470216751099
H 9.669841766357422 3.765808343887329 -0.24415262043476105
H 9.60383415222168 -1.0250630378723145 3.000904083251953
H 9.256993293762207 2.097482681274414 4.218019962310791
H 12.078676223754883 1.1462889909744263 2.6672351360321045
H 9.08493423461914 -1.3563131093978882 -1.6666439771652222
