18
Generated by QM7 dataset
C 6.0163397789001465 -2.0426995754241943 -1.2900404930114746
C 4.94805908203125 -0.22020979225635529 0.6666197776794434
C 5.915863037109375 2.5056633949279785 0.3532087206840515
C 4.5765767097473145 4.255039691925049 2.22770357131958
C 8.737072944641113 2.683770179748535 0.743323802947998
C 10.357211112976074 3.5423104763031006 -1.0020840167999268
H 5.150864124298096 -3.9085960388183594 -1.0669583082199097
H 8.060702323913574 -2.2716774940490723 -1.0798083543777466
H 5.625015735626221 -1.3820134401321411 -3.210606813430786
H 5.392541408538818 -0.9303688406944275 2.563753604888916
H 2.881246566772461 -0.2302442342042923 0.4984530508518219
H 5.433359622955322 3.149946689605713 -1.5591562986373901
H 4.9365315437316895 3.689236640930176 4.187954425811768
H 2.5286803245544434 4.2238969802856445 1.9242324829101562
H 5.2136030197143555 6.213211536407471 2.00360107421875
H 9.473953247070312 2.0703649520874023 2.563791513442993
H 9.721166610717773 4.176653861999512 -2.8459653854370117
H 12.369693756103516 3.6266868114471436 -0.6134240031242371
