15
Generated by QM7 dataset
O 1.9528241157531738 0.10835689306259155 -0.23587562143802643
C 4.617167949676514 -0.05349814519286156 0.031407248228788376
C 5.638054847717285 2.0222904682159424 1.7342772483825684
O 7.989629745483398 1.1152408123016357 2.7366068363189697
C 7.7693634033203125 -1.4960017204284668 2.7195048332214355
C 9.550222396850586 -2.953566312789917 3.7584385871887207
C 5.449478626251221 -2.4200589656829834 1.4061262607574463
H 1.4051436185836792 -1.351494312286377 -1.209557056427002
H 5.495455741882324 0.05642722174525261 -1.8431254625320435
H 4.352020263671875 2.4541873931884766 3.3018429279327393
H 5.965921878814697 3.7757484912872314 0.6861406564712524
H 9.406716346740723 -4.996492385864258 3.7462687492370605
H 11.185723304748535 -2.1104838848114014 4.663541793823242
H 5.836702823638916 -3.9585793018341064 0.08027556538581848
H 4.0240960121154785 -3.056216239929199 2.7642157077789307
