17
Generated by QM7 dataset
C 2.3228135108947754 0.7035072445869446 -0.27693936228752136
C 5.1465744972229 0.6722889542579651 -0.17400598526000977
N 6.42419958114624 2.7494571208953857 -0.25333669781684875
O 9.008419036865234 2.1638309955596924 -0.10353809595108032
C 10.406759262084961 4.475892066955566 -0.01829254813492298
C 13.220845222473145 3.8367109298706055 0.14154048264026642
N 14.829739570617676 6.084370136260986 0.21660040318965912
H 1.6979000568389893 -0.44310298562049866 -1.8774429559707642
H 1.6098766326904297 2.631122350692749 -0.4822581112384796
H 1.582532286643982 -0.12874704599380493 1.4617787599563599
H 6.068591117858887 -1.1931730508804321 -0.012415500357747078
H 9.817883491516113 5.571252822875977 1.6399421691894531
H 10.011126518249512 5.574522018432617 -1.731083631515503
H 13.756714820861816 2.656501293182373 -1.4742131233215332
H 13.568819046020508 2.6922929286956787 1.831768274307251
H 14.60482406616211 7.094221115112305 -1.4095277786254883
H 16.677154541015625 5.538031578063965 0.2578720152378082
