11
Generated by QM7 dataset
O 2.254934549331665 0.24683602154254913 0.6696622371673584
C 4.490480422973633 -0.030386796221137047 0.32442817091941833
N 6.342204570770264 1.7381889820098877 0.032919030636548996
C 8.119945526123047 -0.07281114906072617 -1.0817925930023193
C 6.392773628234863 -2.1931405067443848 -0.055123310536146164
C 5.60069465637207 -4.03437614440918 -1.8833388090133667
N 5.049046039581299 -5.546422004699707 -3.373652458190918
H 5.820016384124756 3.471370220184326 -0.590218186378479
H 8.25583553314209 0.12761320173740387 -3.136737585067749
H 10.00007152557373 0.022714508697390556 -0.2319071888923645
H 7.022165775299072 -3.003114938735962 1.7450108528137207
