16
Generated by QM7 dataset
N 1.854898452758789 -0.05708862468600273 0.38769620656967163
C 4.568620681762695 -0.01602487824857235 -0.08256213366985321
C 5.815613269805908 2.002467155456543 1.6178512573242188
C 7.822124481201172 -0.0010771439410746098 2.3171064853668213
C 5.88300085067749 -2.04714035987854 1.5535060167312622
C 5.118852138519287 0.032087549567222595 -2.7479074001312256
C 5.576374053955078 0.07056237012147903 -4.970470905303955
H 1.3590532541275024 -0.2454187273979187 2.235905170440674
H 0.9463937282562256 -1.4636874198913574 -0.561834454536438
H 4.699370861053467 2.625396490097046 3.251481771469116
H 6.560259819030762 3.683303117752075 0.669340968132019
H 9.503999710083008 0.04610931873321533 1.1089102029800415
H 8.416688919067383 -0.022563330829143524 4.294837474822998
H 6.682978630065918 -3.6702640056610107 0.5509874224662781
H 4.7912492752075195 -2.7607576847076416 3.166198253631592
H 5.974274635314941 0.11438512057065964 -6.942929267883301
