15
Generated by QM7 dataset
C 1.9063935279846191 -0.07479535788297653 0.13632483780384064
C 4.777511119842529 -0.014437507838010788 0.059167325496673584
C 5.894679546356201 2.2164785861968994 1.514256477355957
C 8.30610179901123 1.126522421836853 2.5166049003601074
O 10.076813697814941 2.2979447841644287 3.4097273349761963
N 8.109325408935547 -1.4649157524108887 2.339348554611206
N 5.857432842254639 -2.288987398147583 1.24360990524292
H 1.173992395401001 -1.6959158182144165 -0.9225453734397888
H 1.1215713024139404 1.6435704231262207 -0.7099323272705078
H 1.1961777210235596 -0.2083045095205307 2.0768468379974365
H 5.413082599639893 0.07978423684835434 -1.9131020307540894
H 4.72178316116333 2.805657386779785 3.113985300064087
H 6.286022663116455 3.8192310333251953 0.27102452516555786
H 9.465902328491211 -2.6240170001983643 3.045841693878174
H 6.232959270477295 -3.606731414794922 -0.12018658220767975
