13
Generated by QM7 dataset
C 2.071706771850586 -0.1719272881746292 -0.04408730939030647
C 4.542675018310547 -0.4665544927120209 0.38072311878204346
N 6.396231651306152 1.285637378692627 -0.05489654466509819
C 8.937459945678711 1.1282987594604492 0.3264690935611725
N 10.327561378479004 -0.658040463924408 1.1854819059371948
C 10.437373161315918 3.305849075317383 -0.316925972700119
C 11.681134223937988 5.128376483917236 -0.856934130191803
H 0.7558148503303528 -1.690756916999817 0.3702351450920105
H 1.2967112064361572 1.5656192302703857 -0.806138277053833
H 5.220103740692139 -2.2486608028411865 1.147498369216919
H 5.770259857177734 2.9511475563049316 -0.7708570957183838
H 9.216288566589355 -2.1703693866729736 1.6235771179199219
H 12.814629554748535 6.7233052253723145 -1.3238098621368408
