15
Generated by QM7 dataset
N 2.333225965499878 -0.03701973333954811 1.384980320930481
C 4.461681365966797 0.2099296748638153 0.23716062307357788
N 5.707218647003174 2.416808605194092 -0.14787107706069946
C 8.11070442199707 2.6312358379364014 -1.4529536962509155
C 8.61352252960205 5.4020843505859375 -1.3470723628997803
C 6.755638599395752 6.623263359069824 -0.14545221626758575
C 4.7461981773376465 4.840836048126221 0.7228202223777771
H 1.8285179138183594 -1.907489538192749 1.4053137302398682
H 5.449516773223877 -1.4560339450836182 -0.5431450605392456
H 7.959620952606201 1.9808865785598755 -3.410331964492798
H 9.591683387756348 1.5724411010742188 -0.47175124287605286
H 10.272438049316406 6.280486106872559 -2.146332025527954
H 6.6805219650268555 8.6365966796875 0.17610357701778412
H 4.565578460693359 4.884847640991211 2.782867431640625
H 2.931229829788208 5.29389762878418 -0.15977634489536285
