15
Generated by QM7 dataset
C 2.595576524734497 -0.1029144823551178 0.7467819452285767
N 3.609830379486084 -1.886438012123108 -1.1298294067382812
C 4.324487209320068 -4.267530918121338 0.15835905075073242
C 6.7789387702941895 -4.024738788604736 1.452556848526001
C 8.795767784118652 -3.839110851287842 2.477431058883667
N 2.1032462120056152 -2.1641900539398193 -3.2032558917999268
C 3.3942127227783203 -2.176265239715576 -5.276512145996094
H 2.214040994644165 1.7217483520507812 -0.15556225180625916
H 3.9429891109466553 0.2596672773361206 2.274890184402466
H 0.821463942527771 -0.789848804473877 1.5656380653381348
H 4.517579078674316 -5.775721073150635 -1.253852128982544
H 2.840787410736084 -4.887776851654053 1.467334508895874
H 10.595070838928223 -3.668789863586426 3.3681721687316895
H 2.4124810695648193 -2.3872909545898438 -7.098397254943848
H 5.471135139465332 -1.9760866165161133 -5.345411777496338
