15
Generated by QM7 dataset
C 1.8915969133377075 -0.1636313796043396 0.19260089099407196
C 4.672876834869385 0.2679064869880676 -0.3228030204772949
C 5.72178840637207 2.3920719623565674 1.2062499523162842
N 7.64127779006958 1.7924052476882935 2.599696159362793
N 8.354044914245605 -0.6802068948745728 2.2120189666748047
C 6.562584400177002 -2.380242347717285 3.4305522441864014
C 6.336913108825684 -1.7869250774383545 0.6391242742538452
H 1.2337266206741333 -1.895206332206726 -0.7296232581138611
H 0.7663595080375671 1.4211307764053345 -0.5192967653274536
H 1.4935450553894043 -0.3349161744117737 2.2173101902008057
H 5.0050153732299805 0.6521067023277283 -2.3277456760406494
H 4.894315242767334 4.294534683227539 1.1299428939819336
H 7.319872856140137 -4.205585479736328 3.9638895988464355
H 5.2540812492370605 -1.5791873931884766 4.784257411956787
H 6.915585041046143 -3.1717541217803955 -0.7435883283615112
