15
Generated by QM7 dataset
N 1.6300021409988403 3.7011988162994385 -0.976629376411438
N 4.003082275390625 3.2040116786956787 -1.775945782661438
C 5.56121826171875 2.767673969268799 0.06419399380683899
C 8.380746841430664 2.181839942932129 -0.47432124614715576
C 9.958667755126953 4.198007583618164 -1.8286502361297607
C 11.688504219055176 4.053821563720703 0.46589308977127075
O 9.985350608825684 2.359776496887207 1.7603932619094849
H 0.5638753771781921 4.311429023742676 -2.4719128608703613
H 0.7489551305770874 2.0893757343292236 -0.3700839579105377
H 4.980996608734131 2.812706232070923 2.0681729316711426
H 8.595664978027344 0.2977830469608307 -1.3171013593673706
H 9.031700134277344 6.027791500091553 -2.0851237773895264
H 10.810102462768555 3.5904228687286377 -3.6100194454193115
H 13.525903701782227 3.168843984603882 0.13560675084590912
H 11.932940483093262 5.826989650726318 1.4965497255325317
