14
Generated by QM7 dataset
C 1.7779488563537598 -0.24938715994358063 0.012623370625078678
C 4.639561176300049 0.023338118568062782 0.014324123971164227
C 5.460930347442627 2.706049919128418 -0.0005480205873027444
C 5.961197853088379 4.255039691925049 2.0257487297058105
O 6.662191867828369 6.576284885406494 1.199352502822876
N 6.640081882476807 6.605991363525391 -1.416085124015808
C 5.921286582946777 4.286806106567383 -2.100865125656128
H 1.2484097480773926 -2.248396158218384 0.021637363359332085
H 0.9447497129440308 0.6295244693756104 -1.6652077436447144
H 0.9411780834197998 0.6457571983337402 1.6798532009124756
H 5.4187331199646 -0.9492661356925964 -1.6423043012619019
H 5.415596008300781 -0.9349797964096069 1.6812893152236938
H 5.913784503936768 4.020335674285889 4.052989959716797
H 5.765686511993408 3.8546254634857178 -4.090954780578613
