16
Generated by QM7 dataset
O 1.674561858177185 0.4842234253883362 -0.4191790521144867
C 4.308481216430664 -0.07745987176895142 -0.7172266840934753
C 5.849344730377197 2.075070381164551 0.45929792523384094
O 5.12363338470459 2.305201292037964 3.062849283218384
C 8.667946815490723 1.803006649017334 0.3550228476524353
C 10.019139289855957 -0.7083638310432434 0.26613011956214905
N 9.920910835266113 0.9326176643371582 -1.9562444686889648
H 0.7584982514381409 -0.8720518946647644 -1.2594079971313477
H 4.7193074226379395 -0.3004853427410126 -2.729954957962036
H 4.651447296142578 -1.8637423515319824 0.26354119181632996
H 5.3161773681640625 3.86301589012146 -0.4450305104255676
H 3.276690721511841 2.235942840576172 3.0214264392852783
H 9.5901517868042 3.339901924133301 1.3512108325958252
H 8.958681106567383 -2.4489526748657227 0.13517211377620697
H 11.829628944396973 -0.8701621890068054 1.2098026275634766
H 11.59794807434082 1.8600574731826782 -2.1982805728912354
