16
Generated by QM7 dataset
C 2.4927945137023926 -1.3596580028533936 0.9385324716567993
C 5.300076961517334 -1.1730475425720215 0.3988455832004547
O 6.01157808303833 1.4278581142425537 0.49627986550331116
C 8.608893394470215 1.802231788635254 -0.07957636564970016
C 10.292128562927246 1.0237969160079956 2.0889978408813477
N 11.906597137451172 -0.7989950776100159 1.844316005706787
O 13.1825590133667 -1.1202296018600464 4.138405799865723
H 1.866822600364685 -3.328185558319092 0.9078622460365295
H 1.4096790552139282 -0.2926429808139801 -0.4656663239002228
H 2.0503339767456055 -0.5449970364570618 2.7873082160949707
H 5.706141471862793 -1.9436589479446411 -1.479844570159912
H 6.351142883300781 -2.2506072521209717 1.8183133602142334
H 8.89036750793457 3.829662322998047 -0.3728618621826172
H 9.131704330444336 0.8159270286560059 -1.8218660354614258
H 10.060504913330078 2.0674548149108887 3.880892753601074
H 14.321894645690918 -2.521744966506958 3.768831968307495
