12
Generated by QM7 dataset
C 1.8675029277801514 -0.021712953224778175 0.05497213453054428
C 4.674747943878174 0.06256883591413498 0.17359024286270142
C 6.138737678527832 2.1093878746032715 0.013606027700006962
C 8.752625465393066 1.1556808948516846 0.04240545630455017
O 10.647340774536133 2.451655149459839 -0.13776104152202606
O 8.64487361907959 -1.4387240409851074 0.20528094470500946
N 6.086883544921875 -2.0984842777252197 0.4577105641365051
H 1.056640386581421 1.8768949508666992 -0.08029446005821228
H 1.0979875326156616 -0.9223942160606384 1.7504721879959106
H 1.247030258178711 -1.1005197763442993 -1.5975366830825806
H 5.641361713409424 4.061928749084473 -0.2150130420923233
H 5.550239086151123 -3.570429563522339 -0.6638796925544739
