16
Generated by QM7 dataset
C 1.8680131435394287 0.0014550890773534775 0.04399282485246658
C 4.72941780090332 0.017839014530181885 -0.014437507838010788
C 5.888764381408691 2.0659053325653076 1.6530946493148804
N 8.462968826293945 1.1965745687484741 2.2619833946228027
C 8.179679870605469 -1.5415252447128296 2.7448840141296387
C 5.901312351226807 -2.2809560298919678 1.1778473854064941
O 5.154983997344971 -4.450758457183838 0.8799698948860168
H 1.1232720613479614 -1.5250656604766846 -1.138446569442749
H 1.1082488298416138 1.791630506515503 -0.6604403853416443
H 1.148121953010559 -0.30057984590530396 1.961422324180603
H 5.439274311065674 0.16722185909748077 -1.9545814990997314
H 4.82399845123291 2.3170876502990723 3.4148294925689697
H 5.940353870391846 3.8953492641448975 0.6880682110786438
H 9.57297420501709 1.422434687614441 0.6976491212844849
H 9.858757972717285 -2.5738637447357178 2.131478786468506
H 7.784575462341309 -1.8867403268814087 4.743099212646484
