11
Generated by QM7 dataset
N 1.8609833717346191 -0.08448965847492218 -0.0
C 4.399641513824463 -0.15665829181671143 -0.0
N 5.837515354156494 -2.096386671066284 -0.0
C 5.783544540405273 2.168574094772339 0.0
C 6.925865173339844 4.129165172576904 0.0
C 8.373810768127441 6.635943412780762 0.0
C 9.506645202636719 8.600314140319824 0.0
H 0.935867965221405 1.5885038375854492 0.0
H 0.8189505934715271 -1.6799476146697998 0.0
H 4.755911350250244 -3.693129539489746 -0.0
H 10.517498016357422 10.339863777160645 -0.0
