14
Generated by QM7 dataset
O 5.179474830627441 0.3822537958621979 -3.2829644680023193
C 4.2276387214660645 -0.1079033613204956 -0.8131491541862488
C 5.594647407531738 1.5495564937591553 1.1046016216278076
C 8.275810241699219 0.7175667881965637 1.4629125595092773
C 9.535029411315918 0.8541561961174011 4.012549877166748
O 8.572988510131836 -1.4806948900222778 3.021747589111328
H 4.383106231689453 -0.8340117335319519 -4.408258438110352
H 4.476156711578369 -2.117494821548462 -0.3889812231063843
H 2.2069544792175293 0.3321760594844818 -0.8157569766044617
H 4.577105522155762 1.481923222541809 2.9065122604370117
H 5.605173587799072 3.517139434814453 0.4595814049243927
H 9.422590255737305 0.8759447336196899 -0.22126802802085876
H 8.527615547180176 1.697030782699585 5.580266952514648
H 11.568090438842773 1.0803186893463135 4.079578399658203
