15
Generated by QM7 dataset
C 2.3913350105285645 0.23230403661727905 1.1065102815628052
C 4.888967037200928 -0.27865901589393616 -0.09881377965211868
C 6.308794021606445 1.8342437744140625 -1.350776195526123
N 7.1921844482421875 0.788053572177887 1.0632165670394897
C 8.809808731079102 -1.2416824102401733 0.946261465549469
N 8.159799575805664 -3.3587048053741455 -0.11782442778348923
C 5.476823329925537 -2.9673423767089844 -0.8715227842330933
H 2.194028615951538 2.214021921157837 1.6688737869262695
H 2.1465210914611816 -0.9331278800964355 2.798098564147949
H 0.8599576950073242 -0.2100430577993393 -0.2115737348794937
H 5.628492832183838 3.7522213459014893 -1.1718192100524902
H 7.533563137054443 1.4505537748336792 -2.9430973529815674
H 10.661173820495605 -0.9262114763259888 1.8407065868377686
H 5.267195701599121 -3.227142095565796 -2.9128239154815674
H 4.286579132080078 -4.33648681640625 0.12260542809963226
