14
Generated by QM7 dataset
C 1.7504911422729492 -0.024509748443961143 0.07708192616701126
C 4.6121978759765625 0.007048678584396839 -0.08328022807836533
O 5.363382816314697 0.07991652190685272 -2.719221353530884
C 5.942205905914307 1.9209822416305542 1.673031210899353
O 7.667110443115234 -0.028875015676021576 2.5574042797088623
C 5.983080863952637 -1.9654285907745361 1.5758048295974731
H 1.0919026136398315 -0.07577801495790482 2.038428783416748
H 0.9790481925010681 -1.6842751502990723 -0.8897586464881897
H 0.9470740556716919 1.6616928577423096 -0.813130259513855
H 7.2039008140563965 0.09080134332180023 -2.678497791290283
H 4.8195576667785645 2.6876440048217773 3.230997085571289
H 6.9496378898620605 3.4520761966705322 0.7191919684410095
H 7.020823955535889 -3.425147533416748 0.5464332103729248
H 4.876646041870117 -2.832831859588623 3.092121124267578
