13
Generated by QM7 dataset
C 1.809034824371338 -0.05601148307323456 0.009769883938133717
C 4.680832862854004 -0.015817007049918175 0.008598254062235355
C 5.699432849884033 2.6774773597717285 0.016213851049542427
C 8.551048278808594 2.771888017654419 0.013530438765883446
O 9.934555053710938 0.9140605330467224 -0.008239205926656723
H 1.1194360256195068 -2.0060954093933105 0.0070297811180353165
H 1.0537490844726562 0.8941805958747864 -1.6655290126800537
H 1.0549206733703613 0.889097273349762 1.6884324550628662
H 5.378311634063721 -1.0316959619522095 -1.6575543880462646
H 5.379936695098877 -1.0410500764846802 1.6683635711669922
H 5.045058727264404 3.693450927734375 1.6969362497329712
H 5.041260242462158 3.705564022064209 -1.6556079387664795
H 9.364859580993652 4.69228458404541 0.030235618352890015
