10
Generated by QM7 dataset
O 1.942090392112732 0.07961416244506836 0.34209713339805603
C 4.2484636306762695 0.04079918563365936 0.12708407640457153
O 5.644952297210693 2.176170825958252 0.030235618352890015
C 8.170022964477539 1.9441502094268799 -0.20811553299427032
N 9.451313972473145 -0.1214715987443924 -0.3590479791164398
C 8.083832740783691 -2.295469284057617 -0.2655254304409027
C 5.582515716552734 -2.3648977279663086 -0.03399617224931717
H 9.07514476776123 3.8155648708343506 -0.26333335041999817
H 9.158161163330078 -4.042464256286621 -0.39234495162963867
H 4.496943473815918 -4.091389179229736 0.040270064026117325
