17
Generated by QM7 dataset
N 1.8577897548675537 0.0031180481892079115 -0.04083698242902756
C 4.611215114593506 -0.023829447105526924 0.016837459057569504
C 5.6840128898620605 -2.14483904838562 1.67588472366333
C 7.252712249755859 -0.5250226259231567 3.482954263687134
C 8.590581893920898 1.5042598247528076 1.8306721448898315
C 5.763343334197998 2.226909875869751 1.4549379348754883
N 5.5201544761657715 1.634953260421753 4.280550956726074
H 1.20256507396698 -1.5924533605575562 -0.8893051147460938
H 1.2343502044677734 1.4988740682601929 -1.075632095336914
H 5.348813056945801 -0.1314871460199356 -1.9149917364120483
H 6.854206562042236 -3.4557044506073 0.5829994082450867
H 4.23568868637085 -3.230921506881714 2.681030035018921
H 8.32717227935791 -1.4439774751663208 4.98209285736084
H 9.626510620117188 0.8358636498451233 0.17166271805763245
H 9.760832786560059 2.8817756175994873 2.8432819843292236
H 5.319465637207031 4.153448104858398 0.8660992980003357
H 6.348043441772461 2.9396579265594482 5.4296555519104
