18
Generated by QM7 dataset
C 2.536881685256958 -0.44639110565185547 0.6150113940238953
N 5.250736236572266 -0.010412391275167465 0.780702531337738
C 5.923516750335693 2.461500644683838 -0.286784827709198
C 8.774791717529297 2.9367289543151855 -0.07271666079759598
C 9.470457077026367 5.403048038482666 -1.15715491771698
C 10.050564765930176 7.413660049438477 -2.033458709716797
C 10.765486717224121 9.866297721862793 -3.0933871269226074
H 2.086578845977783 -2.2951102256774902 1.4253826141357422
H 1.8848317861557007 -0.4362054765224457 -1.348451852798462
H 1.4836429357528687 0.9754388332366943 1.6870341300964355
H 6.173622131347656 -1.398624062538147 -0.18708288669586182
H 4.90485954284668 3.9615085124969482 0.7199289798736572
H 5.353291988372803 2.5498640537261963 -2.2792930603027344
H 9.815350532531738 1.4394043684005737 -1.0583033561706543
H 9.352424621582031 2.8703994750976562 1.9163334369659424
H 9.284526824951172 10.58743667602539 -4.342798709869385
H 12.511725425720215 9.711907386779785 -4.189768314361572
H 11.071017265319824 11.254547119140625 -1.5919619798660278
