18
Generated by QM7 dataset
N 2.812743902206421 -0.07666619122028351 -1.787095069885254
C 4.935605525970459 -0.09412726014852524 -0.03994880989193916
C 5.898836612701416 2.5347652435302734 0.2927563786506653
C 8.277793884277344 3.270246744155884 -0.20511087775230408
C 9.2691068649292 5.834378242492676 0.1280856430530548
C 10.814468383789062 6.975659370422363 -1.9734032154083252
C 8.204056739807129 7.950606822967529 -1.448777437210083
H 2.204214334487915 -1.8831120729446411 -2.050541877746582
H 3.435295343399048 0.5311075448989868 -3.5059711933135986
H 6.407097339630127 -1.3645145893096924 -0.7460638880729675
H 4.306175708770752 -0.8221064805984497 1.7921595573425293
H 4.550668239593506 3.9165141582489014 1.0005722045898438
H 9.61864948272705 1.8698084354400635 -0.8924420475959778
H 9.830903053283691 6.284926891326904 2.048689842224121
H 11.100213050842285 5.9069437980651855 -3.697608232498169
H 12.402518272399902 8.161481857299805 -1.455599308013916
H 8.021491050720215 9.79312801361084 -0.5705838799476624
H 6.730675220489502 7.530464172363281 -2.8098716735839844
