18
Generated by QM7 dataset
C 4.610799312591553 -0.9327121376991272 -2.865769624710083
C 4.410261631011963 0.19023872911930084 -0.22909149527549744
C 6.630859851837158 1.9517091512680054 0.3016758859157562
O 6.4636383056640625 4.25564432144165 -1.193154215812683
C 5.800703525543213 5.707010746002197 1.0397651195526123
C 6.461899757385254 3.483086585998535 2.7829806804656982
N 9.00505542755127 3.8521311283111572 3.851602077484131
H 3.0384716987609863 -2.229498863220215 -3.2167863845825195
H 6.378978252410889 -1.9832297563552856 -3.0922534465789795
H 4.5625739097595215 0.5456017255783081 -4.312222957611084
H 4.400170803070068 -1.3455983400344849 1.160367488861084
H 2.6082000732421875 1.1949115991592407 -0.04357708618044853
H 8.45093059539795 1.0054287910461426 -0.008938404731452465
H 6.94277811050415 7.422126293182373 1.2118436098098755
H 3.797480344772339 6.22430419921875 1.0077153444290161
H 5.009323596954346 2.9310030937194824 4.140389919281006
H 10.299650192260742 4.468163013458252 2.5559680461883545
H 9.760435104370117 2.2562952041625977 4.621948719024658
