15
Generated by QM7 dataset
N 4.984379291534424 -0.11941179633140564 1.905958890914917
C 4.799602031707764 0.9646106958389282 -0.3998093605041504
O 2.7625906467437744 1.178565502166748 -1.476367473602295
N 6.990342617034912 1.8280643224716187 -1.4294077157974243
C 9.414917945861816 1.9074329137802124 -0.2606877088546753
C 11.111778259277344 -0.3728429675102234 -0.24647697806358337
C 11.77087688446045 1.8671438694000244 -1.852574110031128
H 6.611509323120117 -1.0135167837142944 2.3330180644989014
H 3.3764114379882812 -0.9466772079467773 2.520970344543457
H 6.740029335021973 2.7182576656341553 -3.10614275932312
H 9.460724830627441 3.1263439655303955 1.3946179151535034
H 10.472257614135742 -2.071309804916382 -1.1962910890579224
H 12.240474700927734 -0.7168676257133484 1.4273101091384888
H 13.343544960021973 3.0408339500427246 -1.265379548072815
H 11.585665702819824 1.669440746307373 -3.882725715637207
