13
Generated by QM7 dataset
C 1.6216118335723877 0.20172826945781708 0.0076911854557693005
C 4.415855407714844 -0.0248687956482172 -0.019445281475782394
C 6.23866605758667 1.8395161628723145 0.0164406169205904
N 8.709634780883789 1.004502773284912 -0.041120439767837524
C 8.759712219238281 -1.4677313566207886 -0.14628370106220245
N 10.909276008605957 -2.8080575466156006 -0.2402786761522293
S 5.859114646911621 -2.922102451324463 -0.11589690297842026
H 1.0405398607254028 2.18790602684021 0.0362638458609581
H 0.8241851329803467 -0.7153747081756592 1.68244206905365
H 0.7970108985900879 -0.6722889542579651 -1.6771886348724365
H 5.871889114379883 3.851677656173706 0.08173065632581711
H 10.860218048095703 -4.634005546569824 0.33005955815315247
H 12.498648643493652 -1.8585834503173828 0.24861237406730652
