17
Generated by QM7 dataset
O 4.082791328430176 -0.659476637840271 -2.636451482772827
C 4.451325416564941 0.0717340037226677 -0.07662839442491531
C 5.944473743438721 2.5143752098083496 -0.03528118506073952
C 4.568148136138916 4.928896903991699 -0.9617004990577698
C 5.932757377624512 6.370852470397949 1.1692302227020264
C 6.157918453216553 3.8242387771606445 2.5855042934417725
O 8.459925651550293 3.396008014678955 3.9673287868499756
H 3.1796154975891113 -2.2605092525482178 -2.6134157180786133
H 5.4883317947387695 -1.4327336549758911 0.892593264579773
H 2.5984301567077637 0.2874273359775543 0.817703366279602
H 7.798332691192627 2.270411491394043 -0.9441638588905334
H 2.5102176666259766 4.883486747741699 -0.7396954894065857
H 5.022721767425537 5.53701114654541 -2.88281512260437
H 7.747990608215332 7.1930155754089355 0.6012352705001831
H 4.805479049682617 7.822597026824951 2.1127517223358154
H 4.526082992553711 3.468214273452759 3.8139209747314453
H 9.820679664611816 3.8200623989105225 2.8068857192993164
