13
Generated by QM7 dataset
N 3.3306801319122314 -1.319935917854309 0.2343638390302658
C 4.426967144012451 0.7216108441352844 -0.5145346522331238
C 4.066917419433594 1.0626685619354248 -3.1977756023406982
C 3.7610464096069336 1.336792230606079 -5.432301044464111
N 5.759261608123779 2.364670991897583 1.001082420349121
C 8.003802299499512 3.6307685375213623 -0.03119937889277935
C 5.638980388641357 5.086745738983154 0.4695969521999359
H 3.6543145179748535 -1.4517065286636353 2.139434576034546
H 3.4684789180755615 1.5445109605789185 -7.411638259887695
H 8.51177978515625 3.1512317657470703 -1.9501217603683472
H 9.533801078796387 3.748044967651367 1.3180084228515625
H 5.522535800933838 6.217539310455322 2.16745924949646
H 4.447980880737305 5.653266906738281 -1.0895216464996338
