19
Generated by QM7 dataset
C 5.328252792358398 -1.892522931098938 -1.3096935749053955
N 4.317287445068359 0.3632053732872009 -0.09767994284629822
C 6.197640419006348 2.400311231613159 0.06774668395519257
C 6.446498394012451 4.3604865074157715 -1.985251784324646
C 4.848413467407227 4.317948818206787 -4.306591510772705
C 5.289192199707031 5.078052997589111 0.507977306842804
N 6.6699395179748535 6.752917289733887 2.224169969558716
H 3.8499958515167236 -3.3322863578796387 -1.4352281093597412
H 6.905399322509766 -2.6828629970550537 -0.2293938547372818
H 5.971213340759277 -1.484512209892273 -3.2326221466064453
H 3.6743457317352295 -0.09624375402927399 1.6604645252227783
H 7.939476490020752 1.8627030849456787 1.0216048955917358
H 8.333711624145508 5.033077716827393 -2.4095520973205566
H 2.8898448944091797 3.777940511703491 -3.916816473007202
H 5.626810550689697 2.98348069190979 -5.681801795959473
H 4.824999809265137 6.193274974822998 -5.179418087005615
H 3.253239154815674 5.37424898147583 0.5267800688743591
H 8.565637588500977 6.426108360290527 2.157273530960083
H 6.133446216583252 6.431512832641602 4.046111583709717
