17
Generated by QM7 dataset
C 0.6955704092979431 -1.6858246326446533 2.174281120300293
C 3.2073943614959717 -2.3319408893585205 0.9063315391540527
C 3.1471498012542725 -5.029751777648926 -0.1323564201593399
C 3.8072123527526855 -0.4072737693786621 -1.178735613822937
O 6.187265872955322 -0.9502865672111511 -2.369508743286133
C 8.257932662963867 -0.025567995384335518 -1.1800583600997925
O 8.303078651428223 1.1912455558776855 0.7778490781784058
H 0.7512039542198181 0.21720512211322784 2.985427141189575
H 0.2824951708316803 -3.013338327407837 3.7072837352752686
H -0.8699921369552612 -1.7617161273956299 0.8227867484092712
H 4.701808929443359 -2.2586007118225098 2.341162919998169
H 1.7191216945648193 -5.22974157333374 -1.6175110340118408
H 2.701817035675049 -6.383116722106934 1.3690876960754395
H 4.980259895324707 -5.564109802246094 -0.9287059307098389
H 3.791055202484131 1.532378911972046 -0.44639110565185547
H 2.366220474243164 -0.4883430302143097 -2.6646838188171387
H 9.950390815734863 -0.553595244884491 -2.2686729431152344
