15
Generated by QM7 dataset
C 1.5474588871002197 -2.422213077545166 1.6917773485183716
C 2.238985300064087 -0.7242186665534973 -0.47449132800102234
O 2.0306808948516846 1.984080195426941 -0.11990312486886978
C -0.2731410264968872 3.015190362930298 0.8574443459510803
C -2.6172327995300293 1.555320143699646 0.224404975771904
C -2.521348237991333 -0.8843540549278259 -0.43900227546691895
C -0.14397823810577393 -2.2722067832946777 -0.600611686706543
H 2.654914140701294 -4.125272274017334 1.9486289024353027
H 0.9367939233779907 -1.5739339590072632 3.450432062149048
H 3.797877073287964 -1.3399670124053955 -1.659954309463501
H -0.08991316705942154 3.2027456760406494 2.9103105068206787
H -0.4417046010494232 4.922660827636719 0.07396388053894043
H -4.418595314025879 2.52327561378479 0.37142565846443176
H -4.258365631103516 -1.8937134742736816 -0.863926112651825
H -0.15163162350654602 -3.8741841316223145 -1.8790491819381714
