13
Generated by QM7 dataset
O 3.060317039489746 -0.5523102283477783 -1.9364590644836426
C 4.984908580780029 -0.08887381851673126 -0.11737088859081268
C 5.498120307922363 2.659449338912964 -0.07814017683267593
C 4.0986647605896 4.775659084320068 -0.6861217617988586
C 5.6684980392456055 6.8883161544799805 -0.21350125968456268
C 7.920352458953857 5.933192253112793 0.6587018370628357
O 7.834936618804932 3.370591163635254 0.7575345039367676
H 2.8696625232696533 -2.3749887943267822 -2.032419443130493
H 6.675854206085205 -1.1509188413619995 -0.6536751389503479
H 4.324883937835693 -0.7316263914108276 1.7327654361724854
H 2.1828794479370117 4.766739845275879 -1.3957706689834595
H 5.215738773345947 8.861908912658691 -0.4796880781650543
H 9.67982006072998 6.780450820922852 1.2589166164398193
