12
Generated by QM7 dataset
N 1.8244550228118896 -0.16338571906089783 0.1155567541718483
C 4.018011093139648 -0.08382824808359146 0.10941514372825623
C 6.7547502517700195 0.04985097423195839 0.038323644548654556
C 7.993541717529297 2.063448667526245 1.7523430585861206
C 9.962616920471191 -0.0021542878821492195 2.3065807819366455
N 8.001686096191406 -1.8916726112365723 1.6666817665100098
H 7.509091377258301 0.06842698156833649 -1.8956031799316406
H 6.882514953613281 2.628098726272583 3.409235954284668
H 8.705741882324219 3.7553205490112305 0.8049477338790894
H 11.579316139221191 -0.005877048242837191 1.011098027229309
H 10.650968551635742 -0.08736203610897064 4.251959323883057
H 8.635726928710938 -3.447465181350708 0.7276579737663269
