18
Generated by QM7 dataset
C 1.891011118888855 -0.10157278180122375 0.006311685312539339
C 4.762109756469727 0.0 0.0
C 5.672995567321777 2.5722384452819824 0.0
C 6.423746109008789 4.692322254180908 0.0
C 7.33463191986084 7.264560699462891 0.0
N 5.2067437171936035 9.009156227111816 -0.22546322643756866
C 6.053680896759033 11.62257194519043 -0.114744171500206
H 1.2421926259994507 -2.0653951168060303 0.006254993379116058
H 1.1056032180786133 0.8351266980171204 -1.6641873121261597
H 1.1130298376083374 0.8325755596160889 1.6816861629486084
H 5.471494197845459 -1.0067704916000366 -1.664678692817688
H 5.478882789611816 -1.0093783140182495 1.659935474395752
H 8.642964363098145 7.54140567779541 -1.5817196369171143
H 8.381464958190918 7.630185127258301 1.7503588199615479
H 3.977363348007202 8.667701721191406 1.2170780897140503
H 7.354133605957031 12.05488395690918 -1.6646219491958618
H 6.981461048126221 12.046645164489746 1.6853522062301636
H 4.424661636352539 12.883000373840332 -0.3012223541736603
