17
Generated by QM7 dataset
C 1.9771826267242432 -0.11253318935632706 0.04248104244470596
C 4.858051300048828 -0.05340366065502167 -0.018859466537833214
N 5.8069963455200195 -2.127774953842163 -1.5446432828903198
C 6.451562881469727 -1.1598193645477295 -3.8344433307647705
N 6.539661884307861 1.2747714519500732 -4.097342014312744
C 5.885457515716553 2.2497944831848145 -1.5175824165344238
C 8.274638175964355 3.347895622253418 -0.33695706725120544
H 1.2404351234436035 1.4964929819107056 1.1124061346054077
H 1.3034952878952026 -1.848813533782959 0.9438048005104065
H 1.167189359664917 -0.04522114619612694 -1.8609267473220825
H 5.607100963592529 -0.14223968982696533 1.9087556600570679
H 4.872621059417725 -3.796875476837158 -1.5032771825790405
H 6.81153678894043 -2.533914804458618 -5.355616092681885
H 4.457202434539795 3.7397301197052 -1.6888104677200317
H 9.769903182983398 1.9247616529464722 -0.18165937066078186
H 7.883068084716797 4.08445405960083 1.5557925701141357
H 9.010138511657715 4.897773265838623 -1.4944143295288086
