13
Generated by QM7 dataset
C 1.8519883155822754 0.20696280896663666 -0.3963700532913208
C 4.613123893737793 0.3357665538787842 0.133244588971138
N 6.347797870635986 -1.4125136137008667 -1.1112157106399536
C 6.430473327636719 1.2663054466247559 -1.8534245491027832
C 8.736279487609863 2.643575668334961 -1.0791847705841064
O 8.832674026489258 4.952027320861816 -1.2208764553070068
H 0.9601698517799377 2.0162055492401123 0.0598854199051857
H 0.9693350195884705 -1.2555906772613525 0.7694776058197021
H 1.4505349397659302 -0.22147589921951294 -2.3807337284088135
H 5.011062145233154 0.7591218948364258 2.0983707904815674
H 5.43713903427124 -2.4575510025024414 -2.456681728363037
H 5.715250015258789 1.7170240879058838 -3.718470811843872
H 10.345759391784668 1.5084738731384277 -0.39671021699905396
