16
Generated by QM7 dataset
N 1.8733233213424683 0.04142279550433159 -0.03932520002126694
C 4.624424457550049 0.009429733268916607 0.08280780166387558
C 5.69370698928833 2.1271703243255615 1.6974464654922485
C 8.347789764404297 1.1797370910644531 2.2275335788726807
N 8.06746768951416 -1.5453046560287476 2.635714530944824
C 5.768710136413574 -2.3603246212005615 1.3031740188598633
H 1.2487499713897705 -1.3852258920669556 -1.1717814207077026
H 1.2715210914611816 1.6899254322052002 -0.8321409225463867
H 5.3740034103393555 0.19611577689647675 -1.843163251876831
H 4.635252475738525 2.3365519046783447 3.4684977531433105
H 5.691722869873047 3.9487340450286865 0.7156015038490295
H 9.573503494262695 1.5200579166412354 0.5942621827125549
H 9.186280250549316 2.102773904800415 3.8765087127685547
H 9.614302635192871 -2.49377703666687 1.9934531450271606
H 6.193728446960449 -3.795685052871704 -0.1281045377254486
H 4.478159427642822 -3.2066006660461426 2.681786060333252
