13
Generated by QM7 dataset
C 1.8004554510116577 -0.15473078191280365 0.010903719812631607
C 4.66185998916626 0.1112670749425888 0.011697405017912388
C 5.486536502838135 2.789991617202759 -0.00616050697863102
N 5.8407087326049805 4.04590368270874 -2.1680638790130615
O 6.594501495361328 6.460161209106445 -1.435889482498169
N 6.698890209197998 6.665687561035156 1.1894314289093018
C 6.01378870010376 4.39561653137207 2.028639793395996
H 1.2649827003479004 -2.1525304317474365 0.031142687425017357
H 0.9671996235847473 0.7173211574554443 -1.672048568725586
H 0.9645540118217468 0.752016544342041 1.6737871170043945
H 5.440408229827881 -0.8765116930007935 -1.6368051767349243
H 5.432093143463135 -0.8373565673828125 1.6839916706085205
H 5.935025215148926 4.039119720458984 4.034943103790283
