15
Generated by QM7 dataset
C 1.8630621433258057 0.03136945515871048 -0.13194067776203156
C 4.7321577072143555 -0.01804688386619091 0.10049563646316528
N 5.548746109008789 -2.3754992485046387 1.3657807111740112
C 6.456457138061523 -1.6570063829421997 3.904741048812866
C 6.677120685577393 1.1378607749938965 3.859614372253418
C 5.702022075653076 2.0621068477630615 1.7276253700256348
H 1.1909242868423462 -1.549821138381958 -1.289057731628418
H 1.2288322448730469 1.7864148616790771 -1.031280279159546
H 0.9327499270439148 -0.09713192284107208 1.7162492275238037
H 5.586729526519775 0.08989427238702774 -1.7817094326019287
H 7.064533233642578 -3.0540053844451904 0.39075756072998047
H 8.279211044311523 -2.5509603023529053 4.299429416656494
H 5.095703125 -2.2584495544433594 5.340101718902588
H 7.468594551086426 2.246676445007324 5.379539966583252
H 5.591775417327881 4.043692588806152 1.2436665296554565
