16
Generated by QM7 dataset
C 2.7857964038848877 0.4966767132282257 -0.5135330557823181
C 5.342010021209717 -0.382915198802948 0.21943499147891998
C 5.830163955688477 -3.0857338905334473 0.8613938689231873
N 8.072192192077637 -3.729771375656128 -0.6639174818992615
C 9.587979316711426 -1.4179749488830566 -0.9907456040382385
C 7.6789021492004395 0.6530137658119202 -0.9204100370407104
O 6.860235214233398 1.444223165512085 1.5400322675704956
H 2.781412363052368 2.5002589225769043 -1.0271039009094238
H 1.461041808128357 0.2370094507932663 1.0518971681594849
H 2.0873537063598633 -0.5765743255615234 -2.1365244388580322
H 4.254472732543945 -4.321690082550049 0.349089115858078
H 6.227195739746094 -3.304375171661377 2.8819267749786377
H 9.109803199768066 -5.080112934112549 0.2276553064584732
H 10.958767890930176 -1.2105019092559814 0.5465087890625
H 10.59603500366211 -1.474307656288147 -2.7940168380737305
H 7.624704837799072 1.930147409439087 -2.501997470855713
