14
Generated by QM7 dataset
C 1.6325721740722656 -0.8626410961151123 -0.08002990484237671
C 4.412056922912598 -0.1466994434595108 0.028100227937102318
C 4.775243282318115 2.7114546298980713 -0.11315680295228958
C 7.535623073577881 3.454684019088745 -0.015250089578330517
O 9.294201850891113 1.9597971439361572 0.18370027840137482
C 8.009302139282227 6.15531063079834 -0.17302332818508148
N 8.310202598571777 8.325547218322754 -0.3044348657131195
H 1.4175591468811035 -2.917207956314087 0.021977514028549194
H 0.7679468989372253 -0.21359574794769287 -1.843692421913147
H 0.5902748703956604 -0.02883722074329853 1.5003480911254883
H 5.415879726409912 -1.0648607015609741 -1.5351190567016602
H 5.238887786865234 -0.8786092400550842 1.7816904783248901
H 3.800976276397705 3.622605085372925 1.4719455242156982
H 3.9698233604431152 3.434274911880493 -1.8797483444213867
