11
Generated by QM7 dataset
C 1.7620184421539307 0.0051400549709796906 -0.011470637284219265
C 4.582132339477539 -0.07437962293624878 -0.0013983973767608404
N 6.02907657623291 -2.0465166568756104 0.0025700274854898453
O 4.590560436248779 -4.269382476806641 -0.002664513885974884
C 6.023199558258057 2.2350924015045166 0.0011527329916134477
C 7.217827796936035 4.164144039154053 0.002910178154706955
H 1.0763312578201294 1.954260230064392 0.004062911029905081
H 1.036401391029358 -0.9716593623161316 1.6590850353240967
H 1.0506877899169922 -0.9401954412460327 -1.7061203718185425
H 5.891164302825928 -5.576789855957031 0.0006614041631110013
H 8.295084953308105 5.865577697753906 0.004308575764298439
