15
Generated by QM7 dataset
O 1.9338890314102173 0.33266738057136536 0.0868896096944809
C 4.656814098358154 0.1864025890827179 0.21705394983291626
C 5.946911334991455 1.7238649129867554 2.306089401245117
N 7.150421142578125 -0.5459229946136475 3.196566343307495
C 5.801780700683594 -2.156801223754883 1.4759516716003418
C 9.733809471130371 -0.6267654895782471 3.1389107704162598
N 11.285104751586914 1.0509523153305054 3.976588487625122
H 1.4458105564117432 -0.9020607471466064 -1.1844803094863892
H 5.473459243774414 0.5640643835067749 -1.652225375175476
H 4.676070690155029 2.507704257965088 3.7361397743225098
H 7.223440170288086 3.198796033859253 1.6237094402313232
H 6.977303504943848 -3.320343255996704 0.2353276014328003
H 4.453479766845703 -3.3613126277923584 2.480152130126953
H 10.509315490722656 -2.388519287109375 2.332923650741577
H 10.269319534301758 2.500466823577881 4.760276794433594
