12
Generated by QM7 dataset
C 2.754918336868286 -1.0096617937088013 -0.4022093117237091
C 5.190699577331543 -0.4543468654155731 -0.018519315868616104
C 6.178554058074951 2.084141254425049 -0.1862892061471939
C 8.62162971496582 2.618650197982788 0.19163712859153748
C 9.526525497436523 5.2479963302612305 -0.0050644660368561745
O 11.754607200622559 5.7820515632629395 0.3279241621494293
H 2.095536231994629 -2.9477272033691406 -0.2564736306667328
H 1.3595823049545288 0.42035067081451416 -0.8670819401741028
H 6.498598098754883 -1.9748204946517944 0.44147780537605286
H 4.839172840118408 3.5781774520874023 -0.640749454498291
H 10.036240577697754 1.2089900970458984 0.6471555829048157
H 8.096871376037598 6.691066741943359 -0.4648915231227875
