16
Generated by QM7 dataset
C -2.2599613666534424 -1.3571257591247559 -1.0525397062301636
N -2.3887271881103516 1.454427719116211 -0.890438973903656
C -0.07938739657402039 2.091813564300537 0.5864198207855225
C 2.2801058292388916 1.3387764692306519 -0.9414804577827454
O 2.3026123046875 -1.4060696363449097 -0.8028501272201538
C 0.03170960396528244 -2.009629249572754 0.6136696934700012
C -0.061945222318172455 0.05126826837658882 2.5938191413879395
H -1.9965523481369019 -1.944036841392517 -3.0181005001068115
H -4.004310607910156 -2.174394369125366 -0.29712164402008057
H -3.9411182403564453 1.9371393918991089 0.14554670453071594
H -0.07528668642044067 4.045261383056641 1.2501860857009888
H 4.021450519561768 2.0310776233673096 -0.06470422446727753
H 2.2145888805389404 1.9374794960021973 -2.9197781085968018
H 0.08416840434074402 -3.9525511264801025 1.3041378259658813
H -1.755914568901062 0.003987322095781565 3.780529499053955
H 1.6360304355621338 0.1205834224820137 3.7750680446624756
