17
Generated by QM7 dataset
C 3.2579634189605713 -0.6634072661399841 1.9807353019714355
N 5.763324737548828 0.28485730290412903 1.3315199613571167
C 5.694727420806885 2.9559662342071533 0.4467501640319824
C 4.785183429718018 4.791872978210449 2.4786970615386963
C 8.389363288879395 3.73317289352417 -0.34958043694496155
N 10.269659996032715 2.814614772796631 1.1677184104919434
O 8.850192070007324 5.142228126525879 -2.1268301010131836
H 3.3821940422058105 -2.6891748905181885 2.3803746700286865
H 1.9148027896881104 -0.4064989984035492 0.4291379153728485
H 2.5211403369903564 0.24173375964164734 3.686723470687866
H 6.444363117218018 -0.7811750173568726 -0.13003206253051758
H 4.4998345375061035 3.0911006927490234 -1.241720199584961
H 5.843694686889648 4.559568881988525 4.243285655975342
H 2.7746849060058594 4.533812046051025 2.889636993408203
H 5.045247554779053 6.751556873321533 1.8618526458740234
H 9.8355712890625 1.4002114534378052 2.3868186473846436
H 12.085214614868164 3.142822504043579 0.6836462020874023
