16
Generated by QM7 dataset
C 1.8281399011611938 -0.12672503292560577 0.3248817026615143
C 4.581451892852783 0.3009010851383209 -0.4435565173625946
N 5.021002292633057 -0.6347212195396423 -2.9807028770446777
C 5.479355335235596 -3.136019468307495 -3.4536824226379395
O 5.6885857582092285 -4.800508975982666 -1.8649518489837646
C 5.4641432762146 3.0109951496124268 -0.4384353458881378
C 4.097039699554443 5.092792987823486 0.025095563381910324
H 1.467315673828125 0.5785963535308838 2.2369065284729004
H 1.3643255233764648 -2.14436674118042 0.30243176221847534
H 0.5189377069473267 0.8118641376495361 -0.9775742292404175
H 5.784451484680176 -0.7657737135887146 0.8653811812400818
H 4.672328948974609 0.5299170017242432 -4.4551239013671875
H 5.651226043701172 -3.5154953002929688 -5.496004104614258
H 7.471618175506592 3.2595129013061523 -0.8273410201072693
H 2.0954039096832275 5.027767658233643 0.4614522159099579
H 4.981639385223389 6.9450836181640625 -0.006670733448117971
