16
Generated by QM7 dataset
C 3.2716071605682373 -3.36269211769104 -1.471643090248108
C 3.696531057357788 -1.7061203718185425 0.8409659266471863
C 6.315332412719727 -0.4908941686153412 0.8583136200904846
N 8.348847389221191 -2.330580234527588 1.1144471168518066
O 8.347997665405273 -3.52280855178833 3.512490749359131
C 10.758248329162598 -1.754554033279419 0.2858777642250061
O 11.312146186828613 -0.1559968888759613 -1.2952749729156494
H 1.342801570892334 -4.110891342163086 -1.468468427658081
H 4.575593948364258 -4.968222141265869 -1.4975513219833374
H 3.5354697704315186 -2.2820143699645996 -3.216181516647339
H 3.40842342376709 -2.836195468902588 2.552093982696533
H 2.266650915145874 -0.20758642256259918 0.8554790019989014
H 6.471121311187744 0.836506187915802 2.441847324371338
H 6.5995659828186035 0.5965676307678223 -0.8818596005439758
H 7.746214389801025 -5.210352897644043 3.077343463897705
H 12.195158958435059 -3.007215738296509 1.1273161172866821
