18
Generated by QM7 dataset
C 2.4575698375701904 -0.48174789547920227 0.3451017737388611
N 5.195140838623047 -0.26841670274734497 0.13443511724472046
C 5.971837043762207 2.4061882495880127 0.05929960682988167
C 8.8806734085083 2.7074673175811768 -0.12472192198038101
C 10.16878604888916 2.0922482013702393 2.3890295028686523
N 9.937087059020996 1.0766714811325073 -2.1241655349731445
H 1.9238923788070679 -2.478961706161499 0.3550228476524353
H 1.4981749057769775 0.42545294761657715 -1.2468979358673096
H 1.779744029045105 0.35375672578811646 2.111032009124756
H 5.752307415008545 -1.055733323097229 -1.5390874147415161
H 5.287208080291748 3.398256778717041 1.7446707487106323
H 5.112030506134033 3.3132758140563965 -1.5962705612182617
H 9.295562744140625 4.677072048187256 -0.6115909814834595
H 9.858474731445312 0.1257423758506775 2.95804500579834
H 9.4433012008667 3.312028408050537 3.895594835281372
H 12.213582992553711 2.402522325515747 2.2672367095947266
H 9.690232276916504 -0.7559282183647156 -1.5659027099609375
H 11.846296310424805 1.3292522430419922 -2.191326379776001
