12
Generated by QM7 dataset
C 1.800757884979248 -0.1678643673658371 -0.01105489768087864
C 4.556073188781738 0.1804877370595932 -0.00602822657674551
C 6.163795471191406 2.2150425910949707 -0.00655734958127141
O 5.431658744812012 4.627939224243164 -0.01252888422459364
N 8.621252059936523 1.4624968767166138 -0.0003590479609556496
C 8.434471130371094 -1.016408085823059 0.003628274193033576
O 6.031174182891846 -1.9481942653656006 0.0004913287702947855
H 0.8157380819320679 1.6500521898269653 0.005650280974805355
H 1.2022626399993896 -1.2368634939193726 1.6548898220062256
H 1.2049460411071777 -1.2049649953842163 -1.6979566812515259
H 6.976982116699219 5.624146461486816 -0.011338356882333755
H 9.9428129196167 -2.3950767517089844 0.009051788598299026
