13
Generated by QM7 dataset
C 2.0587053298950195 -0.3948204815387726 -0.5748924612998962
C 4.886963844299316 -0.07768664509057999 -0.1121741458773613
C 5.720938205718994 2.707637310028076 0.0
C 4.6897711753845215 3.9681036472320557 2.1895501613616943
N 3.8678536415100098 4.972814083099365 3.9348256587982178
C 8.500347137451172 2.8466646671295166 -0.040440138429403305
N 10.691276550292969 2.9303226470947266 -0.12319124490022659
H 1.5895620584487915 -2.4024088382720947 -0.7426245808601379
H 1.4861372709274292 0.5439198613166809 -2.325685977935791
H 0.9431434273719788 0.3851639926433563 0.9814481735229492
H 5.895680904388428 -1.0455855131149292 -1.6470285654067993
H 5.399023056030273 -1.064785122871399 1.6392240524291992
H 5.024611949920654 3.6592466831207275 -1.7069140672683716
