13
Generated by QM7 dataset
C 1.8370405435562134 -0.10678842663764954 0.20849348604679108
C 4.693626403808594 -0.08163616806268692 -0.09091472625732422
O 5.311396598815918 -1.3445779085159302 -2.393810510635376
C 5.696692943572998 2.62579345703125 -0.08207080513238907
O 6.394908905029297 3.716921329498291 -2.0067379474639893
C 5.805768013000488 3.9083127975463867 2.331752061843872
C 5.8993659019470215 4.978615760803223 4.331422328948975
H 1.247011423110962 0.747462272644043 1.9968924522399902
H 1.1157132387161255 -2.045193910598755 0.13199737668037415
H 0.925833523273468 0.9343940019607544 -1.332767128944397
H 5.592927932739258 -1.1373317241668701 1.4446011781692505
H 5.4122514724731445 -0.04028896242380142 -3.70070743560791
H 5.994060039520264 5.9467034339904785 6.095311641693115
