15
Generated by QM7 dataset
C 2.4621052742004395 0.1601731926202774 0.3903796374797821
C 5.149654865264893 -0.29904916882514954 -0.549456775188446
C 5.161975860595703 -1.712734341621399 -3.0431394577026367
O 3.2590973377227783 -2.4488015174865723 -4.149989604949951
C 6.547296524047852 2.1590499877929688 -0.8066107034683228
C 8.384771347045898 3.0393788814544678 1.1853117942810059
O 9.225680351257324 1.8831498622894287 -1.117451786994934
H 2.472517728805542 1.1479519605636597 2.2096567153930664
H 1.4461318254470825 -1.6271486282348633 0.6333417296409607
H 1.3831661939620972 1.317800521850586 -0.9470929503440857
H 6.116211891174316 -1.5255948305130005 0.8142641186714172
H 7.053440570831299 -2.1339542865753174 -3.813410758972168
H 5.594420909881592 3.5486412048339844 -1.9694536924362183
H 8.590940475463867 1.9581341743469238 2.909705877304077
H 8.700601577758789 5.049933910369873 1.3977925777435303
