18
Generated by QM7 dataset
C 1.8490970134735107 0.009543117135763168 -0.04573137313127518
C 4.728038311004639 -0.014324123971164227 -0.0060849180445075035
C 5.815046310424805 -2.4076244831085205 1.2314966917037964
C 6.3538641929626465 -1.6851632595062256 3.9919519424438477
N 8.590978622436523 -2.91839861869812 4.988499164581299
C 6.675684452056885 1.108683466911316 3.828263998031616
C 5.7748894691467285 2.0324759483337402 1.6524710655212402
H 1.1282987594604492 -1.5380859375 -1.2149049043655396
H 1.1381253004074097 1.7862069606781006 -0.8325188755989075
H 1.0495160818099976 -0.20783208310604095 1.8531599044799805
H 5.4512553215026855 0.17228633165359497 -1.937026023864746
H 7.571074485778809 -2.9256551265716553 0.24844229221343994
H 4.553408622741699 -4.044051647186279 1.0942648649215698
H 4.727414608001709 -2.1200270652770996 5.198163986206055
H 10.09497356414795 -2.502394199371338 3.859689950942993
H 8.36368179321289 -4.825623512268066 4.872696399688721
H 7.450528621673584 2.2426702976226807 5.341273307800293
H 5.7456746101379395 4.016234874725342 1.1597437858581543
