13
Generated by QM7 dataset
N 1.8507789373397827 -0.08258102834224701 -0.04274560511112213
C 4.402646064758301 0.08237316459417343 0.0023621576838195324
C 5.993190765380859 2.1381494998931885 -0.14305226504802704
C 8.515483856201172 1.2178529500961304 -0.0010960411746054888
C 8.391101837158203 -1.3781394958496094 0.2023140788078308
N 5.903390884399414 -2.0228195190429688 0.19428274035453796
O 5.004505157470703 -4.483715534210205 0.2276553064584732
H 0.827907919883728 1.5259727239608765 0.21720512211322784
H 1.0108901262283325 -1.5997287034988403 0.7968597412109375
H 5.417769432067871 4.090954780578613 -0.3237478733062744
H 10.23058032989502 2.3323378562927246 -0.052761152386665344
H 9.84619140625 -2.8047125339508057 0.3415113091468811
H 3.9612627029418945 -4.376964569091797 -1.2817823886871338
