15
Generated by QM7 dataset
C 1.8498151302337646 0.07861261069774628 0.12678173184394836
C 4.635498046875 -0.057126421481370926 -0.036736276000738144
C 6.193671703338623 -2.0428507328033447 -0.1054467186331749
C 8.935532569885254 -1.381049633026123 -0.259629487991333
C 8.995625495910645 1.4921844005584717 -0.47091975808143616
C 6.266445159912109 2.1997547149658203 -0.18354910612106323
O 5.457963943481445 4.35988187789917 -0.11087023466825485
H 1.001819372177124 -1.8088269233703613 0.07957636564970016
H 1.0797139406204224 1.1577407121658325 -1.4603803157806396
H 1.2695369720458984 0.9961691498756409 1.8857766389846802
H 5.552903652191162 -3.985337972640991 -0.03244659677147865
H 9.929963111877441 -2.022233724594116 1.4377036094665527
H 9.827123641967773 -2.267331123352051 -1.9025384187698364
H 9.680707931518555 2.0980684757232666 -2.3238906860351562
H 10.130670547485352 2.342750072479248 1.0316771268844604
