15
Generated by QM7 dataset
C 2.1094257831573486 -0.26170817017555237 0.04282119497656822
C 4.9520463943481445 0.07111039757728577 -0.05121157690882683
S 5.8263468742370605 3.3257668018341064 0.07577801495790482
O 4.9471516609191895 4.541975498199463 -2.2169322967529297
O 5.1416802406311035 4.305381774902344 2.547861099243164
C 9.221182823181152 3.193126916885376 -0.027476618066430092
O 10.40163803100586 2.1067612171173096 2.15653657913208
H 1.616849660873413 -2.2678604125976562 -0.048188015818595886
H 1.1927573680877686 0.7010316848754883 -1.5421488285064697
H 1.3260396718978882 0.5170479416847229 1.7918950319290161
H 5.712453365325928 -0.7066441774368286 -1.8091481924057007
H 5.842711925506592 -0.8777589201927185 1.554583191871643
H 9.900142669677734 5.134631633758545 -0.23408037424087524
H 9.769146919250488 2.1112208366394043 -1.699544072151184
H 9.672242164611816 2.9911718368530273 3.6069581508636475
