13
Generated by QM7 dataset
C 2.124732494354248 -0.12842579185962677 0.2875785231590271
C 4.60896635055542 0.0447109192609787 -0.11597248911857605
C 6.051885604858398 2.470703601837158 -0.13366033136844635
C 8.47850227355957 1.4975323677062988 -1.1646003723144531
O 10.279203414916992 2.8485164642333984 -1.721502661705017
C 8.484378814697266 -1.3217310905456543 -1.3858118057250977
O 6.008686542510986 -2.102376937866211 -0.6361196041107178
H 1.1831386089324951 -1.9519548416137695 0.24256524443626404
H 0.9736624956130981 1.525557041168213 0.6655237674713135
H 6.343545913696289 3.2046353816986084 1.7724307775497437
H 5.231461048126221 3.870669364929199 -1.4079971313476562
H 8.818047523498535 -1.898437738418579 -3.3397886753082275
H 9.87508487701416 -2.144763469696045 -0.10055232793092728
