16
Generated by QM7 dataset
C 3.552212715148926 0.31745508313179016 -1.487932562828064
O 3.1890640258789062 -0.1222652792930603 1.1576651334762573
C 0.944201648235321 0.11449850350618362 -0.34863558411598206
C -0.6567365527153015 2.35098934173584 0.25186270475387573
C -3.3020317554473877 1.3380773067474365 -0.26524195075035095
N -3.1207315921783447 -1.3494722843170166 0.3871293067932129
C -0.6471366882324219 -2.2154016494750977 -0.5415199398994446
H 4.243077754974365 2.159219980239868 -2.0495970249176025
H 4.26063346862793 -1.2380162477493286 -2.6120362281799316
H -0.45321300625801086 2.890770673751831 2.2406671047210693
H -0.22971510887145996 3.98410964012146 -0.9416882991790771
H -4.7397541999816895 2.308565139770508 0.8584080934524536
H -3.7826080322265625 1.543944001197815 -2.270864963531494
H -4.54091739654541 -2.3599467277526855 -0.4242435097694397
H -0.794044017791748 -2.8225326538085938 -2.5147151947021484
H 0.055879201740026474 -3.7813796997070312 0.6090020537376404
