13
Generated by QM7 dataset
O 1.4765374660491943 1.4735139608383179 -1.819674015045166
N 4.09428071975708 1.2709542512893677 -2.1301937103271484
C 5.202132701873779 2.3580002784729004 -0.239522784948349
C 8.040860176086426 2.4160525798797607 -0.04038344696164131
C 8.915236473083496 5.10333776473999 -0.2573429048061371
C 10.193296432495117 6.333662986755371 1.5474400520324707
H 0.8321409225463867 0.5854182839393616 -3.3012948036193848
H 4.119300842285156 3.261194944381714 1.3003582954406738
H 8.880106925964355 1.2817823886871338 -1.5533170700073242
H 8.56935977935791 1.5834203958511353 1.7785913944244385
H 8.483036994934082 6.078681945800781 -2.01796293258667
H 10.690275192260742 5.439916610717773 3.32633376121521
H 10.789372444152832 8.277907371520996 1.270311713218689
