18
Generated by QM7 dataset
C 1.9176751375198364 -0.2706276774406433 0.45396891236305237
C 4.711767673492432 0.08282669633626938 -0.1594739854335785
C 5.295088291168213 0.07046788930892944 -3.0079526901245117
N 4.239940643310547 2.2762129306793213 -4.313035488128662
C 6.054758071899414 2.152265787124634 1.3948636054992676
C 7.591653347015381 -0.011092692613601685 2.505758047103882
O 6.177873611450195 -1.8808066844940186 1.1009544134140015
H 1.6178512573242188 -0.48174789547920227 2.4916985034942627
H 1.1652618646621704 -1.9641435146331787 -0.46661117672920227
H 0.8019619584083557 1.3541399240493774 -0.17325009405612946
H 4.559001922607422 -1.6564016342163086 -3.8829147815704346
H 7.345630168914795 0.06857816129922867 -3.3041861057281494
H 2.318127155303955 2.1361653804779053 -4.349601745605469
H 4.794386386871338 2.2247934341430664 -6.158692836761475
H 4.87239408493042 3.151061534881592 2.764310359954834
H 7.164650917053223 3.523602247238159 0.3197983503341675
H 9.592230796813965 -0.03443080931901932 1.985251784324646
H 7.3912858963012695 -0.28213611245155334 4.5448102951049805
