16
Generated by QM7 dataset
C 1.6476333141326904 -0.28973281383514404 -0.5018923878669739
C 4.448226451873779 0.04841478168964386 -0.30664587020874023
C 5.753951549530029 2.150111436843872 0.3122583329677582
C 4.549591064453125 4.665714740753174 0.8925365209579468
C 8.511232376098633 1.9932831525802612 0.41298073530197144
C 10.107728958129883 3.859198808670044 1.0266504287719727
H 1.075443148612976 -1.9327362775802612 0.6187908053398132
H 1.1224217414855957 -0.6448879241943359 -2.4705145359039307
H 0.5564298629760742 1.321655511856079 0.17859801650047302
H 5.489937782287598 -1.6797964572906494 -0.7204769849777222
H 2.499786376953125 4.672763824462891 0.6569254994392395
H 5.283409595489502 6.132388114929199 -0.37216266989707947
H 4.937759876251221 5.221011161804199 2.8488755226135254
H 9.345470428466797 0.168563574552536 -0.05378160625696182
H 9.48538589477539 5.744635105133057 1.5298466682434082
H 12.131399154663086 3.5199172496795654 1.0402753353118896
