12
Generated by QM7 dataset
N 1.924497127532959 -0.022657817229628563 0.09902165085077286
C 4.667623519897461 0.0 0.0
C 5.578509330749512 2.5722384452819824 0.0
C 6.329259872436523 4.692322254180908 0.0
C 7.315167427062988 7.231112480163574 -0.013587131164968014
O 9.863066673278809 7.339753150939941 0.09571462869644165
O 5.938785552978516 9.073217391967773 -0.13870589435100555
H 1.293971061706543 -1.8330910205841064 -0.055690228939056396
H 1.2232197523117065 0.9264949560165405 -1.4233227968215942
H 5.304366588592529 -0.9939203858375549 -1.6997519731521606
H 5.411967754364014 -1.030940055847168 1.631797432899475
H 10.597149848937988 5.648202419281006 0.18103575706481934
