10
Generated by QM7 dataset
O 1.6165473461151123 0.20104795694351196 -0.011357254348695278
C 4.127237319946289 0.13872478902339935 0.0005858151125721633
C 5.806145668029785 2.1332740783691406 0.008976198732852936
C 8.375077247619629 1.317989468574524 0.021032651886343956
C 8.567281723022461 -1.2753950357437134 0.021467288956046104
S 5.667156219482422 -2.6993415355682373 0.007388829253613949
H 1.113086462020874 1.966335654258728 -0.013379260897636414
H 5.233709812164307 4.09647274017334 0.006614041514694691
H 9.995404243469238 2.5688936710357666 0.028969502076506615
H 10.26708984375 -2.409722089767456 0.029328549280762672
