17
Generated by QM7 dataset
C 4.8555755615234375 -1.1410166025161743 1.8087513446807861
O 4.0104522705078125 1.3317466974258423 1.192001461982727
C 5.769504070281982 3.129122018814087 0.4915744662284851
C 4.598043918609619 5.531738758087158 -0.1619684249162674
C 2.253044843673706 6.236908912658691 0.48458248376846313
C 8.281347274780273 2.7322983741760254 0.34513959288597107
C 10.315863609313965 4.579146385192871 -0.33928143978118896
H 3.196528434753418 -2.277686834335327 2.2888362407684326
H 6.100829601287842 -1.1079275608062744 3.4602396488189697
H 5.7862467765808105 -2.033893346786499 0.19099462032318115
H 5.701908588409424 6.853488445281982 -1.2777950763702393
H 1.0289937257766724 5.031433582305908 1.6059837341308594
H 1.5138784646987915 8.061079978942871 -0.08825021237134933
H 9.041016578674316 0.8826155066490173 0.8106169104576111
H 9.65096378326416 6.518893718719482 -0.5651037096977234
H 11.227165222167969 3.9948999881744385 -2.1011109352111816
H 11.752376556396484 4.597117900848389 1.1503140926361084
