16
Generated by QM7 dataset
C 4.3461432456970215 4.04340934753418 1.0813013315200806
C 6.173527240753174 4.713335990905762 2.6975085735321045
O 8.635197639465332 5.314042091369629 2.2142677307128906
C 9.42328929901123 5.324662208557129 -0.37152016162872314
C 12.150447845458984 6.087866306304932 -0.4561420977115631
C 14.20095157623291 4.125234127044678 -0.6659584045410156
N 13.592251777648926 5.767727851867676 -2.800611972808838
H 2.466168165206909 3.6202051639556885 1.7840337753295898
H 4.637482643127441 3.885314702987671 -0.9375498294830322
H 5.830371856689453 4.846240520477295 4.714904308319092
H 8.310373306274414 6.710984230041504 -1.4342832565307617
H 9.160221099853516 3.4426653385162354 -1.198029637336731
H 12.519303321838379 7.799145221710205 0.6061296463012695
H 13.67426586151123 2.1574058532714844 -0.875491201877594
H 15.984380722045898 4.46368408203125 0.28039756417274475
H 14.90910816192627 7.169960975646973 -2.982686996459961
