19
Generated by QM7 dataset
C 1.839761734008789 0.34689703583717346 -0.37722712755203247
C 4.619983673095703 0.13377371430397034 0.015193398110568523
C 6.175360679626465 -1.5586082935333252 -1.6501655578613281
C 6.42559814453125 1.2763210535049438 -1.880617618560791
C 8.730894088745117 2.5445539951324463 -0.9616438150405884
C 8.327380180358887 4.836149215698242 0.6815108060836792
C 11.081656455993652 1.829084873199463 -1.605454683303833
H 1.1495771408081055 2.13641095161438 0.396577924489975
H 0.8633402585983276 -1.1951195001602173 0.5958117246627808
H 1.3260018825531006 0.27123239636421204 -2.380242347717285
H 5.103772163391113 0.18524985015392303 2.005849838256836
H 5.249904632568359 -2.5559301376342773 -3.1819963455200195
H 7.682096004486084 -2.6282877922058105 -0.7646588087081909
H 5.6230692863464355 2.139037609100342 -3.5626816749572754
H 7.084885597229004 6.1900248527526855 -0.2705898880958557
H 10.10147476196289 5.811493873596191 1.1118392944335938
H 7.455668926239014 4.297237396240234 2.478224754333496
H 11.397354125976562 0.2158445119857788 -2.8326048851013184
H 12.74023151397705 2.8283531665802 -0.930841326713562
