17
Generated by QM7 dataset
C 2.249284267425537 -0.6628970503807068 0.5785585641860962
C 4.807274341583252 0.017423275858163834 -0.5855316519737244
C 5.222409248352051 -1.5282214879989624 -3.011467456817627
O 7.767152309417725 -1.3540077209472656 -3.8412084579467773
C 4.921054840087891 2.8758041858673096 -1.0668827295303345
C 7.52611780166626 3.7087197303771973 -1.836719274520874
O 8.115485191345215 4.035207748413086 -4.059868812561035
H 1.9460021257400513 0.37055638432502747 2.3441107273101807
H 2.151150941848755 -2.6836190223693848 1.008017659187317
H 0.6959861516952515 -0.20463843643665314 -0.7093464732170105
H 6.304882049560547 -0.4756062626838684 0.7643753290176392
H 3.965174436569214 -0.9202777147293091 -4.539632320404053
H 4.847374439239502 -3.530386447906494 -2.6483566761016846
H 7.946827411651611 0.2016526758670807 -4.827872276306152
H 4.428459644317627 3.931461811065674 0.6450013518333435
H 3.5785365104675293 3.435295343399048 -2.541454792022705
H 8.934020042419434 3.86269474029541 -0.3094993531703949
