13
Generated by QM7 dataset
C 1.8504387140274048 -0.024320775642991066 -0.01661069318652153
C 4.656606674194336 0.19505752623081207 -0.0017007534625008702
C 5.981739044189453 2.3641607761383057 0.0070675755850970745
S 9.248943328857422 1.7947295904159546 0.024812104180455208
C 8.71307373046875 -1.5133872032165527 0.020862575620412827
N 10.545049667358398 -3.093273878097534 0.03172850236296654
N 6.169011116027832 -1.9376306533813477 0.005650280974805355
H 0.9395907521247864 1.8341870307922363 -0.011829685419797897
H 1.1982942819595337 -1.0566781759262085 1.6532835960388184
H 1.2150182723999023 -1.040237545967102 -1.7030967473983765
H 5.208236217498779 4.255209922790527 0.003855041228234768
H 9.841012954711914 -4.887833118438721 0.027287645265460014
H 5.401196479797363 -3.678654193878174 0.002097595948725939
