12
Generated by QM7 dataset
N 1.7624720335006714 -0.06536562740802765 0.07213084399700165
C 3.9535906314849854 -0.030726946890354156 0.048452578485012054
C 6.6759867668151855 0.013341466896235943 -0.01150843221694231
C 7.962266445159912 1.9315457344055176 1.7608846426010132
N 9.877107620239258 -0.018027987331151962 2.3853635787963867
C 8.022624015808105 -1.9792424440383911 1.6290762424468994
H 7.437697410583496 0.09015883505344391 -1.9417502880096436
H 6.846723556518555 2.5253732204437256 3.4045305252075195
H 8.725829124450684 3.620753049850464 0.8441784381866455
H 11.444408416748047 0.04410620778799057 1.2595969438552856
H 8.836963653564453 -3.5785555839538574 0.6015376448631287
H 6.92764139175415 -2.7164812088012695 3.22786021232605
