20
Generated by QM7 dataset
C 2.005509614944458 -0.14467743039131165 0.03928740695118904
C 4.820974826812744 -0.06030116230249405 -0.031161583960056305
C 6.3383870124816895 -1.292799472808838 -2.1210854053497314
C 5.129737377166748 -2.666668176651001 -4.2632598876953125
C 6.1629638671875 1.5601011514663696 -1.9681119918823242
C 8.40519905090332 3.101172924041748 -1.2183442115783691
N 9.951449394226074 3.4790802001953125 -3.4587090015411377
H 1.293045163154602 1.2704628705978394 1.3694467544555664
H 1.3647791147232056 -2.0042057037353516 0.6786573529243469
H 1.1497093439102173 0.23991963267326355 -1.8033089637756348
H 5.603680610656738 -0.16852577030658722 1.8618338108062744
H 8.098345756530762 -2.191742181777954 -1.5725544691085815
H 3.506481409072876 -1.653132438659668 -5.045096397399902
H 4.494165420532227 -4.533528804779053 -3.6422202587127686
H 6.499637603759766 -2.9307384490966797 -5.7899885177612305
H 5.008813381195068 2.542210817337036 -3.3515427112579346
H 9.518720626831055 2.165531635284424 0.25490516424179077
H 7.781741142272949 4.931127071380615 -0.48291951417922974
H 10.530706405639648 1.7631334066390991 -4.112138748168945
H 11.547473907470703 4.4346771240234375 -2.9673614501953125
