16
Generated by QM7 dataset
C 1.8833765983581543 0.0021542878821492195 0.01239660382270813
C 4.776528358459473 -0.01277454849332571 -0.06751991808414459
C 5.7809367179870605 -2.316237211227417 -1.5268231630325317
C 6.339974403381348 -1.2573292255401611 -4.083414554595947
C 6.353259086608887 1.268081784248352 -4.069884300231934
C 5.804142475128174 2.299248695373535 -1.4961528778076172
H 1.1933242082595825 1.6664738655090332 1.0302976369857788
H 1.174540400505066 -1.6773020029067993 0.9918794631958008
H 1.0613268613815308 0.028780529275536537 -1.8866647481918335
H 5.4686784744262695 -0.028875015676021576 1.885719895362854
H 4.402816295623779 -3.8548712730407715 -1.6214039325714111
H 7.524265766143799 -3.039511203765869 -0.676692008972168
H 6.746095657348633 -2.4131991863250732 -5.719653129577637
H 6.772003650665283 2.4412426948547363 -5.689115047454834
H 7.555389881134033 2.9942142963409424 -0.6378203630447388
H 4.441744804382324 3.853189468383789 -1.572157621383667
