13
Generated by QM7 dataset
C 3.0169477462768555 -1.2749415636062622 0.24271643161773682
C 4.9747419357299805 -0.11648271977901459 1.3590532541275024
C 5.912858486175537 2.487654447555542 0.6981593370437622
C 5.798190116882324 4.256494522094727 2.9708194732666016
O 5.569514274597168 3.611701250076294 5.189698219299316
C 8.525593757629395 2.337440013885498 -0.25766414403915405
C 10.654464721679688 2.2161386013031006 -1.0319794416427612
H 2.435346841812134 -3.1494364738464355 0.8443485498428345
H 1.9548839330673218 -0.40003612637519836 -1.2783241271972656
H 5.954054832458496 -1.0857043266296387 2.889939308166504
H 4.694174289703369 3.3273353576660156 -0.7533393502235413
H 5.980586528778076 6.281166076660156 2.497065305709839
H 12.548972129821777 2.0903961658477783 -1.7090682983398438
