16
Generated by QM7 dataset
C -0.2327008694410324 2.622429609298706 1.0255922079086304
C -2.8118557929992676 1.4066176414489746 0.5075426697731018
C -3.008122682571411 -0.9415938258171082 -0.49299174547195435
C -0.674159824848175 -2.595557689666748 -0.9523652791976929
C 1.4978536367416382 -1.562652349472046 0.5181629061698914
N 3.87815260887146 -0.3468403220176697 0.09520440548658371
C 1.737905502319336 1.2141867876052856 -0.41447362303733826
H 0.14123813807964325 2.6490747928619385 3.0620744228363037
H -0.2816636860370636 4.585798263549805 0.3701406717300415
H -4.489006519317627 2.52327561378479 0.8967884182929993
H -4.848167896270752 -1.7460880279541016 -0.9155533909797668
H -1.0856854915618896 -4.514555931091309 -0.2927752733230591
H -0.27189379930496216 -2.704103708267212 -2.9806082248687744
H 1.1966501474380493 -1.9437155723571777 2.518343448638916
H 4.710180282592773 -0.9921628832817078 -1.521248459815979
H 1.5494053363800049 1.6568740606307983 -2.415070056915283
