14
Generated by QM7 dataset
C 1.9211900234222412 -0.029290754348039627 0.5505527853965759
C 4.762109756469727 0.0 0.0
N 5.264379978179932 -1.272560477256775 -2.4463071823120117
N 4.753247261047363 -3.786916732788086 -2.5287938117980957
C 4.560362815856934 -4.64078950881958 -4.807519912719727
C 5.672995567321777 2.5722384452819824 0.0
N 6.399047374725342 4.622572422027588 0.0
H 1.5054692029953003 0.9272508025169373 2.3410115242004395
H 1.1973116397857666 -1.9629151821136475 0.6990852952003479
H 0.848524808883667 0.9422174692153931 -0.9335814118385315
H 5.737737655639648 -1.0524641275405884 1.4963796138763428
H 7.124040603637695 -0.9631367325782776 -2.893019437789917
H 4.14719295501709 -6.657920837402344 -5.116547107696533
H 4.766550540924072 -3.4526240825653076 -6.509860992431641
