13
Generated by QM7 dataset
C 2.438937187194824 0.4006030559539795 -1.6719919443130493
C 4.400321960449219 -0.32917138934135437 -0.26023417711257935
N 6.782605171203613 0.6702102422714233 -0.325713187456131
C 8.92436408996582 0.08482980728149414 1.0237213373184204
N 9.179911613464355 -1.6290194988250732 2.7482852935791016
C 11.277148246765137 1.631910800933838 0.42465925216674805
O 11.175349235534668 3.282076358795166 -1.1902439594268799
H 0.6143121719360352 -0.5171613693237305 -1.4781060218811035
H 2.5923073291778564 1.915804386138916 -3.04480242729187
H 4.140900135040283 -1.8577141761779785 1.0867815017700195
H 7.0328049659729 2.104682445526123 -1.5939650535583496
H 7.4942946434021 -2.5389981269836426 2.989849090576172
H 12.96985149383545 1.1378607749938965 1.530508041381836
