16
Generated by QM7 dataset
C 2.52405047416687 -1.3190288543701172 1.229984998703003
C 4.720611572265625 -0.05682406574487686 -0.10892381519079208
O 6.911238670349121 -0.30226168036460876 1.4447333812713623
C 9.11131477355957 0.8810659050941467 0.3745437264442444
C 11.0570707321167 1.100992202758789 2.4882214069366455
C 10.175872802734375 -0.5912008285522461 -1.7471274137496948
N 11.005104064941406 -1.7085580825805664 -3.445140838623047
H 0.7943274974822998 -1.1720647811889648 0.1087915301322937
H 2.198923110961914 -0.447109192609787 3.0779669284820557
H 2.93166446685791 -3.318755865097046 1.570626974105835
H 4.298238754272461 1.9474951028823853 -0.40957924723625183
H 5.033247947692871 -0.9683712720870972 -1.9400684833526611
H 8.616092681884766 2.7910876274108887 -0.25868460536003113
H 11.548985481262207 -0.7630147337913513 3.2488927841186523
H 10.289804458618164 2.2024002075195312 4.064101696014404
H 12.795166015625 2.0128796100616455 1.8311067819595337
