19
Generated by QM7 dataset
C 1.7667427062988281 -0.3338201344013214 0.03165291249752045
C 4.604639053344727 0.13469967246055603 -0.2200774997472763
C 5.818089008331299 -1.598122477531433 -2.183332920074463
N 5.14640474319458 2.8065834045410156 -0.7871276140213013
C 4.032902240753174 3.9253013134002686 -3.0420055389404297
C 6.588133335113525 4.217623233795166 0.8449721336364746
N 7.183737277984619 6.5654754638671875 0.7053024768829346
H 0.9284980297088623 0.9597730040550232 1.413212776184082
H 1.4062775373458862 -2.269693374633789 0.6690386533737183
H 0.7689295411109924 -0.07428513467311859 -1.761602759361267
H 5.446757793426514 -0.3576117753982544 1.6111805438995361
H 4.988536834716797 -1.3501715660095215 -4.06166410446167
H 5.576260566711426 -3.5826940536499023 -1.6485403776168823
H 7.847673416137695 -1.2217646837234497 -2.337855815887451
H 3.128857374191284 2.5301353931427 -4.269930839538574
H 5.4861016273498535 4.869465351104736 -4.173120021820068
H 2.598524570465088 5.317538261413574 -2.508497953414917
H 7.3020339012146 3.1300101280212402 2.4734625816345215
H 6.41110372543335 7.353453636169434 -0.8743196129798889
