18
Generated by QM7 dataset
C 4.253886699676514 -1.2514522075653076 2.7055776119232178
C 5.0548095703125 -0.36224159598350525 0.09395718574523926
C 6.017001628875732 2.3087539672851562 0.1594361960887909
C 8.43203353881836 3.1002089977264404 0.00381724676117301
C 10.7015380859375 1.4006460905075073 -0.1847963184118271
C 9.05205249786377 5.879164695739746 0.03632053732872009
H 3.502021551132202 -3.175798177719116 2.6049118041992188
H 2.7807509899139404 -0.03148283809423447 3.4953696727752686
H 5.8565449714660645 -1.2588788270950317 4.014515399932861
H 3.4245429039001465 -0.43456143140792847 -1.1840078830718994
H 6.447254180908203 -1.6725965738296509 -0.6915642023086548
H 4.5316386222839355 3.7274091243743896 0.32354000210762024
H 10.249553680419922 -0.6006872653961182 0.0387960784137249
H 12.068037033081055 1.8745516538619995 1.2959930896759033
H 11.622023582458496 1.6450632810592651 -2.0214967727661133
H 7.3583478927612305 7.0616230964660645 0.15915273129940033
H 10.060901641845703 6.406228065490723 -1.691569447517395
H 10.250630378723145 6.327539920806885 1.6618818044662476
