15
Generated by QM7 dataset
C 1.6206669807434082 -0.18014758825302124 0.046411674469709396
C 4.155658721923828 -0.12005430459976196 0.0013983973767608404
C 5.547914505004883 2.363896131515503 -0.14488530158996582
C 8.452537536621094 2.2493598461151123 -0.03314579650759697
N 9.666119575500488 -0.2528831660747528 -0.08736203610897064
C 8.210161209106445 -2.1835217475891113 -0.024094007909297943
N 5.6401143074035645 -2.237152338027954 0.0539705790579319
H 0.5202794075012207 1.5495376586914062 -0.011886377818882465
H 0.5792577266693115 -1.9436967372894287 0.13175170123577118
H 4.897225379943848 3.5956764221191406 1.390082597732544
H 5.0099663734436035 3.31493878364563 -1.9065446853637695
H 9.098048210144043 3.22598934173584 1.680193305015564
H 9.212736129760742 3.3480277061462402 -1.6212527751922607
H 9.042698860168457 -4.092391014099121 -0.03119937889277935
H 4.750431537628174 -3.9293453693389893 0.09888936579227448
