17
Generated by QM7 dataset
C 2.341635227203369 -0.24857456982135773 0.9385513663291931
N 4.632172107696533 0.3854663372039795 -0.4698804020881653
C 5.384434700012207 -1.6437405347824097 -2.1873390674591064
N 4.49082088470459 2.7600395679473877 -1.7040605545043945
C 2.410893678665161 3.386445999145508 -3.3825719356536865
C 6.2202982902526855 4.603675365447998 -1.007904291152954
O 6.252499103546143 6.795852184295654 -1.7595617771148682
H 1.8525174856185913 1.274091124534607 2.25376296043396
H 2.6449551582336426 -1.9497249126434326 2.0788121223449707
H 0.7191352844238281 -0.5845490097999573 -0.30296090245246887
H 5.740288734436035 -3.3881466388702393 -1.1306986808776855
H 7.150761604309082 -1.1592525243759155 -3.153367042541504
H 3.946674108505249 -2.039108991622925 -3.6225860118865967
H 1.8008900880813599 1.7235814332962036 -4.4445414543151855
H 2.990680694580078 4.856501579284668 -4.716359615325928
H 0.8415517210960388 4.111155986785889 -2.24767804145813
H 7.639916896820068 3.89032244682312 0.3424561619758606
