14
Generated by QM7 dataset
C 1.887042760848999 0.06268221884965897 0.045995935797691345
C 4.687106609344482 -0.0582035630941391 0.012869034893810749
C 6.160412788391113 -2.0945913791656494 -0.12615811824798584
C 8.851325988769531 -1.325775146484375 -0.08866594731807709
O 8.845656394958496 1.392539143562317 -0.05943188816308975
C 6.2717742919921875 2.2532906532287598 0.15374812483787537
H 1.0450941324234009 -1.8232455253601074 -0.07819686830043793
H 1.1932297945022583 1.1760332584381104 -1.5531091690063477
H 1.2231252193450928 0.9431623220443726 1.7958256006240845
H 5.525445938110352 -4.029481887817383 -0.23670709133148193
H 9.819375991821289 -2.0086655616760254 1.6036971807479858
H 9.86198902130127 -1.9688301086425781 -1.7710890769958496
H 5.88831090927124 3.562549591064453 -1.3986808061599731
H 6.052377223968506 3.2333970069885254 1.9610254764556885
