14
Generated by QM7 dataset
O 4.797447681427002 -1.765382170677185 -0.057466570287942886
C 3.6775014400482178 0.2657333016395569 -0.06923956423997879
C 4.9429755210876465 2.8020670413970947 0.16206291317939758
C 7.803340435028076 2.571671485900879 -0.013039110228419304
N 9.07935905456543 4.969563961029053 0.362487256526947
C 8.986536026000977 6.868322849273682 -1.3964508771896362
O 7.7546234130859375 6.835762977600098 -3.3496150970458984
H 1.5958737134933472 0.3239746391773224 -0.18587346374988556
H 4.377625942230225 3.6357007026672363 1.969567060470581
H 4.2015604972839355 4.005350112915039 -1.3475069999694824
H 8.35978889465332 1.8256266117095947 -1.8647061586380005
H 8.52687931060791 1.276944637298584 1.4319589138031006
H 10.272740364074707 5.158064365386963 1.8463190793991089
H 10.162644386291504 8.499817848205566 -0.8418540954589844
