19
Generated by QM7 dataset
C 1.9684898853302002 -0.042802296578884125 1.4970977306365967
C 4.654962539672852 -0.8580868244171143 0.8801966309547424
C 6.240083694458008 1.3675003051757812 -0.07619375735521317
C 8.931828498840332 0.6025580763816833 -0.6807927489280701
C 10.772364616394043 0.9774797558784485 1.0311479568481445
C 9.572030067443848 -0.48715248703956604 -3.125380277633667
C 7.9866251945495605 -0.953253448009491 -5.04029655456543
H 0.8822564482688904 -1.64670729637146 2.2213730812072754
H 1.008452296257019 0.6753503084182739 -0.18823562562465668
H 1.9552807807922363 1.4425601959228516 2.936577796936035
H 4.592318058013916 -2.3702456951141357 -0.5339232087135315
H 5.522195339202881 -1.658612608909607 2.584521770477295
H 6.250061511993408 2.847647190093994 1.379896879196167
H 5.344296455383301 2.248509645462036 -1.7244317531585693
H 10.36635684967041 1.7953153848648071 2.8690199851989746
H 12.727418899536133 0.4729417562484741 0.6678670048713684
H 11.555977821350098 -0.9629099369049072 -3.416398048400879
H 5.9792256355285645 -0.5558440685272217 -4.95648717880249
H 8.693345069885254 -1.7688592672348022 -6.785968780517578
