15
Generated by QM7 dataset
C 1.9857053756713867 0.856575071811676 0.23855902254581451
C 4.391704559326172 -0.7023355960845947 0.08173065632581711
N 4.164899826049805 -3.3162615299224854 -0.024849899113178253
O 1.8442026376724243 -4.179620742797852 -0.9449386596679688
N 6.480532169342041 0.5942432880401611 0.04267001524567604
C 8.736185073852539 -0.6531838178634644 0.040874775499105453
C 10.708151817321777 0.1829443871974945 -1.2952749729156494
H 2.4224588871002197 2.8397669792175293 0.6247056722640991
H 0.7839528918266296 0.13375481963157654 1.7567650079727173
H 0.9697129726409912 0.7382782101631165 -1.5574367046356201
H 5.660617828369141 -4.164578437805176 -0.8900988101959229
H 0.8703511357307434 -4.483696460723877 0.5934118032455444
H 8.957415580749512 -2.2981338500976562 1.2539844512939453
H 10.543840408325195 1.8631755113601685 -2.457834482192993
H 12.514409065246582 -0.7781892418861389 -1.2314589023590088
