12
Generated by QM7 dataset
O 2.2955636978149414 -0.0022109795827418566 1.0455477237701416
C 4.497189044952393 -0.002645616652444005 0.313751220703125
C 5.984951496124268 -2.3891429901123047 -0.19449061155319214
C 8.440177917480469 -1.2649259567260742 -1.0142160654067993
C 8.444883346557617 1.261618971824646 -0.999929666519165
C 5.9924726486206055 2.3841919898986816 -0.16724076867103577
H 5.1057000160217285 -3.4802520275115967 -1.7083501815795898
H 6.194767951965332 -3.491741418838501 1.5363284349441528
H 10.044915199279785 -2.4102699756622314 -1.5612728595733643
H 10.053305625915527 2.4076056480407715 -1.5343631505966187
H 6.207145690917969 3.4668538570404053 1.5758804082870483
H 5.118001937866211 3.4960310459136963 -1.6689683198928833
