15
Generated by QM7 dataset
C -1.2327061891555786 1.0317527055740356 1.647860050201416
C 0.8327645063400269 -0.42875996232032776 0.40003612637519836
C 3.098867416381836 0.5470001101493835 -0.14811673760414124
O 4.962534427642822 -0.8841461539268494 -1.3430283069610596
C 7.226426124572754 0.3170393407344818 -1.7510201930999756
C 8.982812881469727 -1.4381004571914673 -3.1153457164764404
O 7.783989906311035 2.4754090309143066 -1.1344404220581055
H -1.7695395946502686 0.1239849328994751 3.425941228866577
H -2.8939454555511475 1.0895026922225952 0.4181774854660034
H -0.6699268221855164 2.9792098999023438 2.061899185180664
H 0.43476930260658264 -2.386988639831543 -0.07413395494222641
H 3.621527910232544 2.481323719024658 0.26847338676452637
H 9.338743209838867 -3.1145143508911133 -1.9645971059799194
H 10.782512664794922 -0.4754362106323242 -3.4507343769073486
H 8.17138385772705 -1.9620270729064941 -4.940764427185059
