15
Generated by QM7 dataset
C 1.8823751211166382 -0.0010015548905357718 0.3137701153755188
C 4.721216201782227 -0.026493960991501808 -0.12252984195947647
C 5.602565765380859 -2.3097176551818848 -1.6697808504104614
C 6.6680121421813965 -1.211824655532837 -4.048492431640625
C 6.65361213684082 1.305177092552185 -4.145813465118408
C 5.51204776763916 2.16294264793396 -1.7657978534698486
O 5.2397003173828125 4.396825790405273 -1.252302646636963
H 1.3192745447158813 1.6874498128890991 1.370467185974121
H 1.2876404523849487 -1.66371488571167 1.3912163972854614
H 0.8402667045593262 0.01829254813492298 -1.4762729406356812
H 5.743066787719727 0.06379715353250504 1.675639033317566
H 4.063118934631348 -3.626441240310669 -2.0904717445373535
H 7.075134754180908 -3.3541693687438965 -0.6556026935577393
H 7.3983154296875 -2.3912594318389893 -5.554471969604492
H 7.3038859367370605 2.550827980041504 -5.615245819091797
