18
Generated by QM7 dataset
C 1.9286166429519653 0.19706064462661743 0.32752734422683716
C 4.736069202423096 -0.1729288399219513 -0.20021648705005646
C 5.360208034515381 -2.8728749752044678 -1.1130298376083374
N 5.468319416046143 -2.764366865158081 -3.8938562870025635
C 6.223416328430176 -0.1678076833486557 -4.527840614318848
C 4.308783531188965 1.8956599235534668 -4.7511305809021
C 5.701757431030273 1.505752682685852 -2.292445659637451
H 1.5166374444961548 2.1812920570373535 0.7420954704284668
H 1.3491511344909668 -0.9349609017372131 1.959362506866455
H 0.7512228488922119 -0.3751484453678131 -1.272825002670288
H 5.792766571044922 0.22147589921951294 1.5396543741226196
H 3.9995298385620117 -4.28499174118042 -0.45822077989578247
H 7.232775688171387 -3.408839225769043 -0.4029651880264282
H 6.724836349487305 -4.069770812988281 -4.547210216522217
H 8.007166862487793 0.06343810260295868 -5.515543460845947
H 4.803079128265381 3.535243034362793 -5.873420238494873
H 2.3402936458587646 1.3637964725494385 -4.911587238311768
H 7.131826400756836 2.8442835807800293 -1.715928077697754
