12
Generated by QM7 dataset
C 2.042227029800415 -0.03660399466753006 -0.17092572152614594
C 4.52111291885376 0.06045233830809593 0.2561901807785034
O 5.937708377838135 -2.0859553813934326 0.7599155902862549
C 8.500139236450195 -1.2130719423294067 1.1140313148498535
C 8.423510551452637 1.572327733039856 0.771027147769928
C 6.063847541809082 2.2724523544311523 0.2689269185066223
H 1.057452917098999 -1.8337523937225342 -0.13354694843292236
H 0.9469606876373291 1.6488804817199707 -0.5628738403320312
H 9.714439392089844 -2.123126268386841 -0.29065877199172974
H 9.124013900756836 -1.732047438621521 3.016002893447876
H 10.037620544433594 2.8092100620269775 0.9119818210601807
H 5.406506538391113 4.171759605407715 -0.07213084399700165
