16
Generated by QM7 dataset
C 1.906506896018982 0.005026671569794416 0.2882210314273834
N 4.6356306076049805 0.033089105039834976 -0.07916063070297241
C 5.850346565246582 1.9343047142028809 1.5813039541244507
C 7.87584924697876 -0.06188853085041046 2.2773277759552
C 5.866881370544434 -2.0022783279418945 1.399965763092041
C 10.209547996520996 0.017347685992717743 0.8276811242103577
C 12.130114555358887 0.08645497262477875 -0.3771137595176697
H 1.0834367275238037 -1.6280936002731323 -0.6812084913253784
H 1.068035364151001 1.7018684148788452 -0.5496835112571716
H 1.333296298980713 -0.07636383175849915 2.2777247428894043
H 4.730456829071045 2.557649850845337 3.213913917541504
H 6.530591011047363 3.6198461055755615 0.5919945240020752
H 8.256099700927734 -0.15474967658519745 4.3132243156433105
H 6.560656547546387 -3.584073543548584 0.2603286802768707
H 4.752094268798828 -2.7819793224334717 2.967531442642212
H 13.822552680969238 0.15051668882369995 -1.4679392576217651
