18
Generated by QM7 dataset
C 1.85487961769104 0.02199641242623329 0.006878603249788284
C 4.727660179138184 0.04164956510066986 0.04452194646000862
O 5.570817947387695 0.32414472103118896 -2.516453742980957
C 5.826989650726318 2.1638119220733643 1.6429656744003296
C 8.457355499267578 1.1901873350143433 2.2486608028411865
N 8.152013778686523 -1.5341174602508545 2.607708692550659
C 5.880733013153076 -2.3484950065612793 1.2220669984817505
H 1.0630276203155518 -0.17015093564987183 1.9081509113311768
H 1.149803876876831 -1.5400890111923218 -1.1552274227142334
H 1.120872139930725 1.7660435438156128 -0.8329724073410034
H 7.378605842590332 -0.004289678297936916 -2.553152322769165
H 4.750129222869873 2.4140872955322266 3.3953843116760254
H 5.911309242248535 3.9695208072662354 0.638878583908081
H 9.749285697937012 1.5530903339385986 0.669700026512146
H 9.24302864074707 2.0869758129119873 3.937886953353882
H 9.7141752243042 -2.49252986907959 2.0200228691101074
H 6.379809856414795 -3.7503316402435303 -0.21620357036590576
H 4.5921478271484375 -3.2272932529449463 2.581460475921631
