15
Generated by QM7 dataset
C 2.203382968902588 -0.9903865456581116 4.303624629974365
C 2.474029541015625 0.18067671358585358 2.0768656730651855
C 4.308122158050537 2.3015353679656982 1.5943996906280518
C 6.259453296661377 1.6144875288009644 -0.4273615777492523
O 5.099576950073242 1.2890199422836304 -2.8656373023986816
C 4.68619966506958 3.442457437515259 -4.188766956329346
O 5.177773952484131 5.592644691467285 -3.5165157318115234
H 0.8346731066703796 -2.5021297931671143 4.532243728637695
H 3.3249542713165283 -0.4747748076915741 5.941960334777832
H 1.2929128408432007 -0.39997944235801697 0.4949570596218109
H 5.303459644317627 2.799875020980835 3.3412437438964844
H 3.218864917755127 3.9627368450164795 1.0097562074661255
H 7.196435928344727 -0.172059565782547 0.04344480484724045
H 7.745722770690918 3.056178569793701 -0.5291610956192017
H 3.8094422817230225 2.9553427696228027 -6.011974811553955
