17
Generated by QM7 dataset
C 3.397840976715088 -0.35980385541915894 0.8315172791481018
C 6.14109992980957 0.052761152386665344 0.09688626229763031
N 6.74959135055542 2.728348731994629 0.45686018466949463
C 9.056607246398926 3.255280017852783 -0.1273486465215683
N 10.098960876464844 5.631251811981201 0.05599258467555046
C 12.306010246276855 6.382871150970459 -1.3762686252593994
O 8.259180068969727 7.542123794555664 0.16843129694461823
H 2.87518048286438 -2.3471343517303467 0.5939787030220032
H 2.1380362510681152 0.7888850569725037 -0.34192705154418945
H 3.074282169342041 0.16652266681194305 2.806715726852417
H 6.407286643981934 -0.4966956079006195 -1.8829419612884521
H 7.351676940917969 -1.1368025541305542 1.2851649522781372
H 10.413543701171875 1.8271572589874268 -0.8194230198860168
H 13.83205795288086 5.0076985359191895 -1.1374828815460205
H 12.999217987060547 8.218494415283203 -0.7214974164962769
H 11.854535102844238 6.527888774871826 -3.3894128799438477
H 6.771077632904053 6.630368709564209 0.8087083101272583
