13
Generated by QM7 dataset
C 1.9448305368423462 -0.03261667490005493 0.0936170294880867
C 4.769555568695068 0.09046118706464767 -0.009864370338618755
C 6.014469146728516 2.3823587894439697 -0.1307123601436615
C 8.612313270568848 2.2780649662017822 -0.2503509223461151
N 9.93262767791748 0.10769549012184143 -0.26614901423454285
C 8.546891212463379 -2.010328531265259 -0.156941756606102
N 6.015791893005371 -2.136033058166504 -0.030972611159086227
H 1.1089857816696167 1.8294627666473389 0.43480709195137024
H 1.3464298248291016 -1.2884531021118164 1.6256557703018188
H 1.2081964015960693 -0.7624099850654602 -1.6967850923538208
H 5.023062229156494 4.17060661315918 -0.12874704599380493
H 9.738249778747559 3.9911015033721924 -0.3418136537075043
H 9.56324291229248 -3.788900852203369 -0.17357134819030762
