14
Generated by QM7 dataset
C 1.8717548847198486 -0.022638918831944466 0.6786951422691345
C 4.557962894439697 -0.11992201954126358 -0.3281887471675873
C 5.3305583000183105 2.3512160778045654 -1.54776132106781
O 7.8151326179504395 2.1316678524017334 -2.6037213802337646
C 8.470054626464844 -0.20872025191783905 -3.4011290073394775
N 7.134453296661377 -2.2528181076049805 -3.278958320617676
O 4.678262710571289 -1.9908075332641602 -2.269655466079712
H 1.6447231769561768 1.4800713062286377 2.080475091934204
H 1.3702970743179321 -1.8272895812988281 1.559061884880066
H 0.5131173133850098 0.2831754684448242 -0.8543452024459839
H 5.864991664886475 -0.654733419418335 1.190678596496582
H 5.3680315017700195 3.8786818981170654 -0.1543150395154953
H 4.051005840301514 2.8963265419006348 -3.0812363624572754
H 10.393058776855469 -0.19806219637393951 -4.187652111053467
