16
Generated by QM7 dataset
N 6.222244739532471 -1.6235771179199219 -4.6068501472473145
C 6.463260173797607 -0.8780045509338379 -2.560012102127075
C 6.765899658203125 0.06504437327384949 0.03341035917401314
C 8.1976318359375 2.5586891174316406 0.05708862468600273
C 6.787990570068359 4.941331386566162 -0.9240193963050842
C 8.135705947875977 6.436180591583252 1.1836110353469849
C 8.335298538208008 3.925528049468994 2.650114059448242
H 7.7989373207092285 -1.336338758468628 1.1553407907485962
H 4.9028000831604 0.2831565737724304 0.9119062423706055
H 10.085827827453613 2.361666440963745 -0.7932881116867065
H 4.728869438171387 4.875399112701416 -0.7038663029670715
H 7.239087104797363 5.519153118133545 -2.85520601272583
H 9.967379570007324 7.216278076171875 0.612271249294281
H 7.02142858505249 7.920843601226807 2.0879018306732178
H 10.082860946655273 3.650743007659912 3.716618776321411
H 6.721982479095459 3.5688233375549316 3.9003379344940186
