15
Generated by QM7 dataset
C 1.801872730255127 0.10803564637899399 0.07558904588222504
C 4.606698989868164 -0.28971391916275024 0.004913288168609142
C 5.444697856903076 -2.9553427696228027 -0.3675517439842224
O 3.9348256587982178 -4.699843406677246 -0.5843600034713745
C 6.2785773277282715 1.6151678562164307 0.2386535108089447
C 9.097311973571777 1.4524056911468506 0.19418825209140778
O 9.931946754455566 -0.18336012959480286 2.140247106552124
H 1.3100337982177734 2.1019046306610107 0.3312689960002899
H 0.9597541093826294 -0.9487181305885315 1.642549991607666
H 0.934072732925415 -0.5267800688743591 -1.6922497749328613
H 7.494956016540527 -3.288917064666748 -0.46751824021339417
H 5.544305324554443 3.524603843688965 0.46173569560050964
H 9.935537338256836 3.317716598510742 0.504027783870697
H 9.772831916809082 0.7498433589935303 -1.6295297145843506
H 9.329275131225586 0.5093379020690918 3.7330029010772705
