11
Generated by QM7 dataset
O 2.2826380729675293 0.2168082743883133 0.9396474361419678
C 4.471961498260498 0.057731132954359055 0.24436049163341522
C 5.996705532073975 -2.3512160778045654 -0.13426503539085388
C 8.484095573425293 -1.252321481704712 -0.9828843474388123
C 8.379555702209473 1.266173243522644 -1.0651063919067383
N 6.047558307647705 2.0593101978302 -0.3532465100288391
H 5.141982555389404 -3.520843267440796 -1.6040562391281128
H 6.186037540435791 -3.371422529220581 1.6496175527572632
H 10.1199369430542 -2.3773698806762695 -1.4560717344284058
H 9.846247673034668 2.585277557373047 -1.596346139907837
H 5.465635776519775 3.875166893005371 -0.24995407462120056
