17
Generated by QM7 dataset
C 1.8502497673034668 -0.3156220614910126 0.3762066662311554
C 4.677884578704834 0.0506068654358387 0.06270111352205276
C 5.4807538986206055 2.7808830738067627 0.43490156531333923
O 4.000644683837891 4.449133396148682 1.0989513397216797
C 8.273107528686523 3.354717493057251 -0.0005291232955642045
O 9.119932174682617 2.7538979053497314 -2.4735569953918457
C 8.276830673217773 4.542259216308594 -4.298106670379639
H 1.3470157384872437 -2.3024234771728516 0.10406722128391266
H 0.8005635738372803 0.8130168914794922 -1.00421941280365
H 1.2293235063552856 0.25594452023506165 2.2652335166931152
H 5.235618591308594 -0.544808030128479 -1.8383444547653198
H 5.6892852783203125 -1.1105542182922363 1.4447333812713623
H 9.356355667114258 2.2126235961914062 1.3429527282714844
H 8.655437469482422 5.342104434967041 0.44047626852989197
H 9.019096374511719 3.981180429458618 -6.143216133117676
H 8.991279602050781 6.430265426635742 -3.8485405445098877
H 6.212059020996094 4.566088676452637 -4.404384613037109
