16
Generated by QM7 dataset
O 1.9175617694854736 0.09832245111465454 -0.13205406069755554
C 4.5936408042907715 -0.02757110446691513 -0.10225307941436768
C 5.608253479003906 -2.152700424194336 1.5834393501281738
C 7.0877203941345215 -0.5360963940620422 3.4623939990997314
C 8.503881454467773 1.4884617328643799 1.8662935495376587
C 5.699829578399658 2.2154581546783447 1.3592422008514404
N 5.324794769287109 1.623482584953308 4.177863121032715
H 1.2735998630523682 -1.6152434349060059 -0.2561523914337158
H 5.300039291381836 -0.1426365226507187 -2.042963981628418
H 6.865091800689697 -3.421651601791382 0.5385908484458923
H 4.122021675109863 -3.261554002761841 2.499484062194824
H 8.094396591186523 -1.4533883333206177 5.007736682891846
H 9.610372543334961 0.8137349486351013 0.2565114200115204
H 9.629968643188477 2.867621660232544 2.9261841773986816
H 5.276266574859619 4.13814115524292 0.7545487284660339
H 6.099752426147461 2.936539888381958 5.35678768157959
