17
Generated by QM7 dataset
C 5.701870441436768 -1.6865239143371582 -1.3370568752288818
N 4.941029071807861 0.024396363645792007 0.6790542006492615
C 5.911195755004883 2.594008207321167 0.33174142241477966
C 4.580053806304932 4.324487209320068 2.2305192947387695
C 8.727001190185547 2.7251174449920654 0.7341964244842529
C 10.380908012390137 3.539400339126587 -1.0019139051437378
H 4.799375057220459 -3.52390456199646 -1.0444705486297607
H 7.7459306716918945 -1.9949649572372437 -1.3694089651107788
H 5.090884208679199 -0.988553524017334 -3.1858325004577637
H 5.51578950881958 -0.6662796139717102 2.380185604095459
H 5.412723541259766 3.265408992767334 -1.5669609308242798
H 4.964537143707275 3.7652792930603027 4.187708854675293
H 2.5283401012420654 4.286862850189209 1.950669765472412
H 5.203266620635986 6.285758018493652 2.000671863555908
H 9.436725616455078 2.1299102306365967 2.568326711654663
H 9.773701667785645 4.158852577209473 -2.8606674671173096
H 12.390215873718262 3.5951473712921143 -0.5917866230010986
