13
Generated by QM7 dataset
O 1.56289803981781 0.6833249926567078 -0.06625379621982574
C 3.855135917663574 0.4004140794277191 -0.0725654810667038
C 5.538088321685791 2.5401508808135986 -0.00247554131783545
C 6.962998390197754 4.303832530975342 0.04815022274851799
C 8.685615539550781 6.39470100402832 0.1012326255440712
C 8.986857414245605 7.967123031616211 -2.2524590492248535
C 7.646455764770508 9.041923522949219 0.004289678297936916
H 4.775961399078369 -1.465066909790039 -0.13199737668037415
H 10.369796752929688 6.116797924041748 1.2419657707214355
H 7.859805583953857 7.511944770812988 -3.9025301933288574
H 10.85728931427002 8.677886962890625 -2.691744804382324
H 8.607476234436035 10.486373901367188 1.0939058065414429
H 5.61800479888916 9.30657958984375 -0.12107475101947784
