16
Generated by QM7 dataset
C 3.350975751876831 -1.0699440240859985 -2.5938570499420166
N 5.974898338317871 -0.7495409846305847 -1.946984887123108
C 6.732187271118164 1.1824772357940674 -0.38926467299461365
O 5.291648864746094 2.7019870281219482 0.5963786840438843
C 9.514166831970215 1.2549104690551758 -0.015325678512454033
C 10.558126449584961 2.984557867050171 1.5181870460510254
C 13.3268404006958 3.189347505569458 2.0144481658935547
H 3.109525442123413 -2.91684889793396 -3.4838991165161133
H 2.8016512393951416 0.4232041537761688 -3.9120731353759766
H 2.1835217475891113 -0.9481700658798218 -0.8929522633552551
H 7.269152641296387 -1.8638179302215576 -2.7988734245300293
H 10.663063049316406 -0.12158498167991638 -0.9991170763969421
H 9.354068756103516 4.343384265899658 2.489166259765625
H 14.417646408081055 1.7943705320358276 0.9457701444625854
H 13.704710006713867 2.901031970977783 4.026666164398193
H 13.99945068359375 5.072629451751709 1.4893876314163208
