19
Generated by QM7 dataset
C 5.174844741821289 -1.4559961557388306 3.3400721549987793
C 4.722255706787109 -0.3658698797225952 0.7510338425636292
C 3.0608084201812744 -1.4583961963653564 -0.8323109745979309
C 6.196959972381592 1.981113314628601 -0.030670255422592163
N 5.407243251800537 4.136704921722412 1.5241397619247437
C 9.122029304504395 1.6464049816131592 0.07951967418193817
N 10.08293628692627 -0.3573094308376312 -1.5771843194961548
H 4.8619818687438965 -0.03677406907081604 4.811960697174072
H 7.111852169036865 -2.1639630794525146 3.505706548690796
H 3.9037206172943115 -3.038641929626465 3.7435286045074463
H 2.0015034675598145 -3.1361327171325684 -0.30349001288414
H 2.718824625015259 -0.7074000835418701 -2.7127208709716797
H 5.719747543334961 2.4658470153808594 -1.9912611246109009
H 5.873760223388672 3.8249189853668213 3.3610479831695557
H 3.4876785278320312 4.2647905349731445 1.4522167444229126
H 9.726004600524902 1.2539656162261963 2.0223093032836914
H 10.028852462768555 3.4242970943450928 -0.4798581600189209
H 9.200188636779785 -2.014636993408203 -1.150181770324707
H 11.956485748291016 -0.6204537749290466 -1.229285717010498
