17
Generated by QM7 dataset
O 1.4174079895019531 -0.06606482714414597 0.843233585357666
C 4.054445266723633 0.13173280656337738 0.2116115391254425
C 5.598578453063965 2.0249359607696533 1.8038759231567383
C 7.675652027130127 0.007010884117335081 2.1324236392974854
C 5.770826816558838 -2.00063419342041 1.21224045753479
C 10.058841705322266 0.2436234951019287 0.647571325302124
C 10.163514137268066 1.122554063796997 -1.718989372253418
H 0.799505352973938 -1.4861184358596802 -0.14605693519115448
H 4.274881839752197 0.44130775332450867 -1.8257399797439575
H 4.6818156242370605 2.552830934524536 3.5862655639648438
H 6.128495216369629 3.7689263820648193 0.8270197510719299
H 8.164958953857422 -0.2581743896007538 4.132812023162842
H 6.44307804107666 -3.322913408279419 -0.2285434752702713
H 4.926629543304443 -3.10115385055542 2.7528207302093506
H 11.791361808776855 -0.35373783111572266 1.5795464515686035
H 8.513726234436035 1.7535524368286133 -2.757431745529175
H 11.96653938293457 1.2438366413116455 -2.695448637008667
