17
Generated by QM7 dataset
C 2.154684543609619 5.77078914642334 0.8143019080162048
C 5.0008955001831055 6.122107982635498 0.7462717294692993
O 6.118366241455078 3.767622470855713 0.05279894918203354
C 8.696425437927246 3.66544508934021 -0.08142829686403275
C 10.39955997467041 5.489465236663818 0.36537855863571167
C 13.086807250976562 5.057398319244385 0.1408601850271225
C 14.817758560180664 6.845344066619873 0.5981172323226929
H 1.2059664726257324 7.534999370574951 1.3201626539230347
H 1.6352555751800537 4.314981937408447 2.189096450805664
H 1.4543709754943848 5.13799524307251 -1.026801586151123
H 5.660807132720947 6.703670978546143 2.622335195541382
H 5.480508327484131 7.575080394744873 -0.6495177745819092
H 9.236546516418457 1.7661380767822266 -0.6366298198699951
H 9.809247016906738 7.373371124267578 0.9207690358161926
H 13.715934753417969 3.1835272312164307 -0.42620882391929626
H 14.303922653198242 8.746011734008789 1.1714411973953247
H 16.81659698486328 6.4284138679504395 0.404911607503891
