14
Generated by QM7 dataset
C 1.5798677206039429 -0.09745317697525024 -0.012075349688529968
C 4.389569282531738 -0.03244659677147865 -0.005858151242136955
C 6.030135154724121 2.0099127292633057 -0.01273675449192524
C 5.336038589477539 4.731949806213379 -0.028534865006804466
N 8.57357406616211 1.379878044128418 -0.004592034500092268
C 8.826645851135254 -1.0892947912216187 0.007993541657924652
S 6.083444118499756 -2.801726818084717 0.010658055543899536
H 0.7819308638572693 1.8098852634429932 0.002834589220583439
H 0.8667795658111572 -1.0898807048797607 1.6572898626327515
H 0.8750565648078918 -1.0611001253128052 -1.7016794681549072
H 7.023337364196777 5.928278923034668 -0.01434302143752575
H 4.204640865325928 5.200356483459473 1.6384681463241577
H 4.240242958068848 5.188999176025391 -1.7222397327423096
H 10.658055305480957 -1.9982720613479614 0.016081569716334343
