13
Generated by QM7 dataset
N 1.8972471952438354 0.5526692867279053 0.173628032207489
C 4.315643310546875 0.2125374972820282 -0.6273512840270996
O 5.017978668212891 -1.6841806173324585 -1.7405511140823364
C 6.084729194641113 2.282902479171753 0.011432843282818794
C 7.4382452964782715 3.6701126098632812 -2.084972620010376
C 5.465673923492432 5.012328624725342 -0.5551448464393616
H 1.3441810607910156 2.1010165214538574 1.137274980545044
H 0.6317165493965149 -0.82951420545578 -0.1930733174085617
H 7.2042975425720215 1.897814154624939 1.6872608661651611
H 6.989398002624512 3.1642520427703857 -4.020524501800537
H 9.40392017364502 4.161498069763184 -1.7859234809875488
H 6.093006134033203 6.432155132293701 0.7815529108047485
H 3.699497938156128 5.4618377685546875 -1.4912585020065308
