13
Generated by QM7 dataset
C 1.9529374837875366 0.0003023561730515212 -0.3873182535171509
C 4.425039291381836 -0.08475421369075775 0.08571797609329224
C 6.008932113647461 -2.2653090953826904 0.35783854126930237
C 8.389495849609375 -1.5319254398345947 0.8285692930221558
C 8.746578216552734 1.3034764528274536 0.9411213994026184
C 6.07057523727417 2.182992696762085 0.43569526076316833
O 5.359395503997803 4.374470233917236 0.3288123607635498
H 0.9810891151428223 1.8023641109466553 -0.5466977953910828
H 0.8406824469566345 -1.703682541847229 -0.6256316304206848
H 5.36224889755249 -4.195191860198975 0.20346681773662567
H 9.944891929626465 -2.83054518699646 1.1089102029800415
H 9.366371154785156 1.9063935279846191 2.814709186553955
H 10.018515586853027 1.9578508138656616 -0.5461119413375854
