16
Generated by QM7 dataset
C 1.4778791666030884 -0.4041368365287781 -0.8878689408302307
C 4.190713405609131 -0.1223219707608223 -0.03836144134402275
C 6.181577682495117 -1.3034952878952026 -1.7420061826705933
N 5.812891960144043 1.4169921875 -1.7043628692626953
C 4.652845859527588 0.08161727339029312 2.8291845321655273
C 3.28653621673584 1.9319425821304321 4.517144680023193
O 2.600848913192749 -0.684572160243988 4.438267707824707
H 1.3100337982177734 -0.5018923878669739 -2.950221538543701
H 0.3406609296798706 1.2005618810653687 -0.24721397459506989
H 0.6608561277389526 -2.1395668983459473 -0.11230642348527908
H 5.577961444854736 -2.2725279331207275 -3.442155122756958
H 7.908560752868652 -2.018303155899048 -0.9086559414863586
H 7.19980001449585 2.293466091156006 -0.6908082962036133
H 6.5302510261535645 -0.4680284857749939 3.4597105979919434
H 2.0067567825317383 3.2792985439300537 3.662856101989746
H 4.2447028160095215 2.6071040630340576 6.193671703338623
