14
Generated by QM7 dataset
C 1.8250974416732788 -0.024434158578515053 0.4967901110649109
C 4.496565341949463 0.05888386815786362 -0.5459040999412537
O 4.7371087074279785 2.270487070083618 -2.066018581390381
C 7.151290416717529 2.3155758380889893 -3.195432424545288
C 8.375889778137207 -0.23132137954235077 -3.616293430328369
N 7.377112865447998 -2.3833415508270264 -3.00470232963562
O 4.894504070281982 -2.175358295440674 -2.0195882320404053
H 1.436059594154358 1.6369563341140747 1.6667195558547974
H 1.5178847312927246 -1.736374855041504 1.6161693334579468
H 0.44055184721946716 -0.033013515174388885 -1.04401695728302
H 5.848078727722168 0.114744171500206 1.0286346673965454
H 8.4233980178833 3.433405637741089 -2.0053207874298096
H 7.013434886932373 3.2812259197235107 -5.020208835601807
H 10.279808044433594 -0.2225152552127838 -4.461681365966797
