14
Generated by QM7 dataset
C 1.4597567319869995 0.3751484453678131 -0.06366487592458725
C 4.262541770935059 0.04325583204627037 -0.19764645397663116
N 5.7691450119018555 1.7292695045471191 0.7302846908569336
N 8.274903297424316 1.0172585248947144 0.38765841722488403
C 9.781411170959473 2.705256462097168 1.3128116130828857
C 12.584291458129883 2.3732314109802246 1.1776962280273438
H 0.6477981209754944 -1.2160766124725342 0.9730767011642456
H 0.6947389245033264 0.37314531207084656 -1.982209324836731
H 0.9659712910652161 2.1437621116638184 0.8795541524887085
H 4.968826770782471 -1.691569447517395 -1.117451786994934
H 9.075560569763184 4.441763401031494 2.230027914047241
H 13.077604293823242 0.6010273694992065 0.2402597814798355
H 13.351180076599121 2.38203763961792 3.095541477203369
H 13.395474433898926 3.960658073425293 0.13449181616306305
