12
Generated by QM7 dataset
O 1.9292025566101074 -0.019350795075297356 0.5002861022949219
C 4.573137283325195 0.0 0.0
C 4.939611911773682 -1.3839031457901 -2.4518630504608154
C 6.203403949737549 -0.6506326794624329 -4.523758888244629
C 5.484023094177246 2.5722384452819824 0.0
C 6.234773635864258 4.692322254180908 0.0
H 1.6496363878250122 1.1844803094863892 1.857128381729126
H 5.4894843101501465 -1.0848162174224854 1.5063384771347046
H 4.02906608581543 -3.228672742843628 -2.5055501461029053
H 7.160455703735352 1.1589690446853638 -4.646023750305176
H 6.2910871505737305 -1.8680320978164673 -6.173338413238525
H 6.904303550720215 6.591610431671143 -0.014324123971164227
