13
Generated by QM7 dataset
C 3.063737392425537 -1.8153464794158936 1.4097356796264648
C 4.526630878448486 -0.5647635459899902 -0.2361212819814682
C 6.245620250701904 1.5817196369171143 0.45600980520248413
C 8.950800895690918 0.9512881636619568 -0.12028107047080994
C 10.395232200622559 2.216705560684204 -1.768613576889038
H 1.8542181253433228 -3.3488214015960693 0.7813639640808105
H 3.039567708969116 -1.3452204465866089 3.40623140335083
H 4.476212978363037 -1.10269296169281 -2.220503807067871
H 6.090435981750488 2.0347626209259033 2.4716861248016357
H 5.642797946929932 3.2697365283966064 -0.5829616189002991
H 9.764649391174316 -0.6373290419578552 0.9028733372688293
H 9.673905372619629 3.8180782794952393 -2.829392433166504
H 12.345335006713867 1.6659448146820068 -2.092833995819092
