21
Generated by QM7 dataset
C 4.248350143432617 -0.9577509760856628 -2.752915143966675
C 4.57181453704834 0.027363235130906105 -0.07402057200670242
C 6.184128761291504 2.4094953536987305 -0.061094846576452255
C 4.966824054718018 4.868180274963379 -1.09052312374115
C 6.27126407623291 6.319622039794922 1.0919404029846191
C 8.786867141723633 7.554633617401123 0.4578806459903717
C 6.413881778717041 3.7726681232452393 2.523332357406616
H 3.1213741302490234 -2.691688060760498 -2.750723123550415
H 6.081573486328125 -1.3782528638839722 -3.615537405014038
H 3.28997540473938 0.43231263756752014 -3.9493954181671143
H 5.478561878204346 -1.4335651397705078 1.0796571969985962
H 2.709413766860962 0.3931386172771454 0.7542086243629456
H 8.053143501281738 2.050144910812378 -0.8967506289482117
H 2.897951602935791 4.908771514892578 -0.9742105007171631
H 5.528393745422363 5.402689456939697 -3.006913423538208
H 5.022381782531738 7.696816921234131 2.008608818054199
H 10.090533256530762 6.238326072692871 -0.46430569887161255
H 9.700493812561035 8.25662899017334 2.176907777786255
H 8.503427505493164 9.164472579956055 -0.8111082315444946
H 8.159648895263672 3.406968355178833 3.568124294281006
H 4.807992458343506 3.462507486343384 3.797574758529663
