19
Generated by QM7 dataset
C 4.237843036651611 8.596439361572266 0.5649147033691406
C 6.946311950683594 7.66030740737915 0.46666786074638367
O 6.897500514984131 4.987516403198242 0.10905609279870987
C 9.16658878326416 3.759780168533325 -0.037813421338796616
C 11.511720657348633 4.719364166259766 0.0615672767162323
C 13.94814395904541 3.257037401199341 -0.1070718839764595
C 13.734075546264648 0.3953495919704437 -0.31741729378700256
H 4.17449951171875 10.638421058654785 0.8802155256271362
H 3.192333221435547 7.652332782745361 2.0814766883850098
H 3.254127264022827 8.164127349853516 -1.2040579319000244
H 7.894293308258057 8.121192932128906 2.2500967979431152
H 7.927797794342041 8.57697582244873 -1.1101951599121094
H 8.789286613464355 1.7574453353881836 -0.26696160435676575
H 11.779022216796875 6.7425618171691895 0.2826652228832245
H 15.077520370483398 3.7068867683410645 1.570986032485962
H 15.005974769592285 3.9628312587738037 -1.742648720741272
H 12.761698722839355 -0.40872886776924133 1.323148488998413
H 15.62057113647461 -0.450510710477829 -0.4088611602783203
H 12.711318016052246 -0.1610424667596817 -2.027865171432495
