15
Generated by QM7 dataset
O 1.039859652519226 1.6394319534301758 0.16323454678058624
C 3.4057021141052246 2.13421893119812 -0.9995895624160767
C 5.034022331237793 3.908029317855835 0.580183744430542
O 4.103842735290527 5.088087558746338 2.363877296447754
C 7.818061351776123 4.0422186851501465 -0.13383039832115173
C 8.904994010925293 6.61474084854126 0.35388901829719543
C 10.006477355957031 8.058189392089844 -1.4071468114852905
H 0.7123700380325317 3.0721089839935303 1.2889821529388428
H 3.0683484077453613 3.005420446395874 -2.8432064056396484
H 4.389002323150635 0.3330075442790985 -1.2466901540756226
H 8.01240062713623 3.5407798290252686 -2.133897542953491
H 8.827874183654785 2.6222217082977295 0.9828843474388123
H 8.766288757324219 7.325542449951172 2.282486915588379
H 10.20026969909668 7.448298931121826 -3.35660719871521
H 10.752579689025879 9.90881633758545 -0.9219595789909363
