14
Generated by QM7 dataset
N 1.7736780643463135 -0.1130245178937912 -0.3417569696903229
C 4.502159118652344 -0.3524339199066162 0.021656261757016182
C 5.803859233856201 2.232900381088257 -0.08949743211269379
C 8.608893394470215 2.007342576980591 0.3070237934589386
C 10.34636402130127 2.690497636795044 -1.401099681854248
H 0.9793694615364075 -1.8679753541946411 -0.33839327096939087
H 1.4206393957138062 0.6315276026725769 -2.083177328109741
H 5.272524833679199 -1.6057569980621338 -1.4366453886032104
H 4.850983619689941 -1.2466145753860474 1.8571094274520874
H 5.034098148345947 3.4718427658081055 1.3840543031692505
H 5.400100231170654 3.142085552215576 -1.909001350402832
H 9.231047630310059 1.263130784034729 2.120575189590454
H 9.82092571258545 3.461052417755127 -3.228294849395752
H 12.34871768951416 2.4977643489837646 -0.9960746169090271
