18
Generated by QM7 dataset
N 4.080107688903809 -0.804248571395874 -2.609938621520996
C 4.476515769958496 0.07118598371744156 -0.027363235130906105
C 6.051791191101074 2.4753899574279785 -0.02961200848221779
C 4.770632743835449 4.917709827423096 -1.0187135934829712
C 6.061920166015625 6.366846561431885 1.1607831716537476
O 8.38471508026123 7.655922889709473 0.5597369074821472
C 6.3176188468933105 3.8194198608398438 2.5583300590515137
H 2.991833209991455 -2.3939428329467773 -2.5825185775756836
H 5.763551235198975 -1.331860065460205 -3.3829309940338135
H 5.436193943023682 -1.4082050323486328 1.0571506023406982
H 2.6369993686676025 0.4006975293159485 0.8620930910110474
H 7.911470890045166 2.162564754486084 -0.9060670137405396
H 2.7028374671936035 4.928878307342529 -0.897071897983551
H 5.326211929321289 5.4845709800720215 -2.927110195159912
H 4.790153503417969 7.689201354980469 2.1199514865875244
H 9.379353523254395 6.459235191345215 -0.4184420704841614
H 8.116354942321777 3.5014736652374268 3.5257186889648438
H 4.774393081665039 3.457253932952881 3.891796588897705
