14
Generated by QM7 dataset
O 2.2649879455566406 -0.0034770960919559 0.5098670125007629
C 4.7404913902282715 0.36135342717170715 -0.5012120604515076
C 4.938043594360352 -1.0994237661361694 -2.9885263442993164
C 7.546772480010986 -1.173463225364685 -3.9181015491485596
N 9.611751556396484 -1.247635006904602 -4.649085521697998
C 5.090014934539795 3.162891387939453 -0.8126578330993652
C 6.92076301574707 4.507752895355225 0.3045860528945923
H 2.1496012210845947 1.0367604494094849 2.0243313312530518
H 6.082555770874023 -0.4072359800338745 0.8797430992126465
H 3.6826038360595703 -0.2715347409248352 -4.417915344238281
H 4.251562595367432 -3.0338797569274902 -2.7017226219177246
H 3.746457576751709 4.136534690856934 -2.0295846462249756
H 8.318781852722168 3.6380062103271484 1.5305837392807007
H 7.073206901550293 6.5318193435668945 -0.003949527628719807
