12
Generated by QM7 dataset
O 1.7218995094299316 -0.07131826132535934 0.20140701532363892
S 4.4097514152526855 -0.0020786987151950598 -0.2873517572879791
O 5.4739885330200195 0.09117928892374039 -2.807093620300293
C 5.994551658630371 2.070894241333008 1.8059923648834229
C 7.980710506439209 -0.002456644084304571 2.3281238079071045
C 6.080987453460693 -2.12314510345459 1.687242031097412
H 4.827853202819824 2.5790226459503174 3.436561346054077
H 6.720168590545654 3.783174991607666 0.9089393615722656
H 9.598920822143555 0.0674821212887764 1.0339447259902954
H 8.715228080749512 -0.042046405375003815 4.259650707244873
H 6.875466346740723 -3.750596046447754 0.6956648826599121
H 4.9380998611450195 -2.7702062129974365 3.28513765335083
