10
Generated by QM7 dataset
N 1.888573408126831 -0.037133120000362396 0.0
C 4.454065799713135 -0.18506087362766266 0.0
O 5.59368371963501 -2.1926681995391846 0.0
C 5.793919086456299 2.1800825595855713 0.0
C 6.919137954711914 4.149876594543457 0.0
C 8.36099910736084 6.6604719161987305 0.0
C 9.496648788452148 8.623519897460938 0.0
H 0.9605100154876709 1.6290384531021118 0.0
H 0.8985836505889893 -1.669270634651184 -0.0
H 10.513018608093262 10.360197067260742 0.0
