11
Generated by QM7 dataset
C 1.893127679824829 -0.12052673101425171 0.05667288601398468
O 4.575197219848633 -0.015533548779785633 0.054594188928604126
C 5.468886375427246 2.5294928550720215 0.0
C 8.197650909423828 2.5294928550720215 0.0
C 10.446727752685547 2.5294928550720215 0.0
H 1.3227894306182861 -2.10394549369812 0.09960746765136719
H 1.132531762123108 0.7483882308006287 -1.6567606925964355
H 1.1325129270553589 0.8213883638381958 1.7320852279663086
H 4.751584053039551 3.541989326477051 1.658064603805542
H 4.751584053039551 3.4698963165283203 -1.6999787092208862
H 12.459909439086914 2.5083847045898438 0.000453534274129197
