9
Generated by QM7 dataset
N 1.589354157447815 0.5022892355918884 0.010072240605950356
C 3.779773473739624 0.34869226813316345 0.0033259179908782244
C 6.477829933166504 0.10418060421943665 -0.004799904301762581
N 7.996508598327637 2.0828182697296143 -0.01602487824857235
C 10.485051155090332 1.2924970388412476 -0.02175074815750122
C 10.84496784210205 -1.2853728532791138 -0.014834349974989891
S 7.974814414978027 -2.7872326374053955 -0.0006236096378415823
H 11.980466842651367 2.6923117637634277 -0.03110489249229431
H 12.602375984191895 -2.326498508453369 -0.017347685992717743
