16
Generated by QM7 dataset
C 1.8383066654205322 -0.13791221380233765 -0.004270780831575394
C 4.702640056610107 0.0902722179889679 -0.23166152834892273
C 5.615756034851074 -1.119171380996704 -2.648829221725464
C 7.19481086730957 -3.0955793857574463 -2.7596805095672607
C 5.504583358764648 2.8703994750976562 -0.2505776882171631
N 7.898752689361572 3.3201732635498047 0.6135373711585999
O 4.189201354980469 4.615769386291504 -1.0216237306594849
H 1.1640145778656006 0.8197820782661438 1.7045140266418457
H 1.259918212890625 -2.1236932277679443 0.10854586958885193
H 0.8618096113204956 0.7194376587867737 -1.6195708513259888
H 5.562843322753906 -0.82163405418396 1.4189008474349976
H 4.9225287437438965 -0.300220787525177 -4.408938884735107
H 7.93342924118042 -3.994011878967285 -1.0709456205368042
H 7.766679763793945 -3.8734095096588135 -4.571720123291016
H 9.165833473205566 1.9068470001220703 0.8195931315422058
H 8.547647476196289 5.110783100128174 0.46251046657562256
