11
Generated by QM7 dataset
C 4.009526252746582 0.11498983204364777 1.0022917985916138
O 2.421816349029541 0.8681780099868774 -1.1271460056304932
C 3.901320695877075 2.8803393840789795 -1.4928269386291504
C 4.344858169555664 4.96383810043335 -2.884213447570801
S 7.053308486938477 6.365334510803223 -1.577789068222046
C 7.382158279418945 4.019900798797607 0.7590274214744568
C 5.488085746765137 2.3497989177703857 0.4427817165851593
H 4.991654872894287 -1.6918151378631592 0.7720097899436951
H 3.0646066665649414 0.10159167647361755 2.8432631492614746
H 3.3635990619659424 5.759885311126709 -4.486417770385742
H 8.907733917236328 4.093883991241455 2.114433526992798
