17
Generated by QM7 dataset
C 4.9406514167785645 -0.4497170150279999 2.4594597816467285
O 4.315019607543945 0.4242057204246521 -0.00018897261179517955
C 5.281822204589844 2.904263496398926 -0.4595814049243927
O 7.974001884460449 2.961560010910034 -0.3531709313392639
C 9.137600898742676 5.226888179779053 -0.7750144600868225
C 8.113122940063477 7.476871490478516 -1.338247299194336
C 9.651304244995117 9.809946060180664 -1.7526075839996338
H 3.9510393142700195 -2.2343366146087646 2.7823004722595215
H 4.339491367340088 0.9041961431503296 3.9022088050842285
H 6.972579002380371 -0.7990707159042358 2.6098062992095947
H 4.458620071411133 4.21225643157959 0.922885537147522
H 4.651655197143555 3.4385268688201904 -2.358227014541626
H 11.163745880126953 4.962949752807617 -0.5911630392074585
H 6.086051940917969 7.712350368499756 -1.5317175388336182
H 11.674520492553711 9.474311828613281 -1.4834916591644287
H 9.062067985534668 11.283951759338379 -0.4273615777492523
H 9.362099647521973 10.5108642578125 -3.67636775970459
