17
Generated by QM7 dataset
C 6.488979339599609 4.585382461547852 5.417674541473389
O 8.204113960266113 4.039781093597412 3.4219160079956055
C 6.9617509841918945 4.029576301574707 1.0269339084625244
C 8.896245002746582 3.4710299968719482 -1.040785551071167
C 11.12942886352539 5.298395156860352 -1.0420328378677368
C 10.408479690551758 7.973793983459473 -1.7116005420684814
O 8.378138542175293 8.596723556518555 -2.6433677673339844
H 7.543635368347168 4.598365306854248 7.193828105926514
H 5.023478031158447 3.1313517093658447 5.52797794342041
H 5.630079746246338 6.446781635284424 5.147122859954834
H 6.043665409088135 5.857055187225342 0.7100456953048706
H 5.50456428527832 2.5571584701538086 1.0172017812728882
H 7.951079368591309 3.4821982383728027 -2.883552074432373
H 9.647089958190918 1.5619909763336182 -0.7434560656547546
H 12.53704833984375 4.68323278427124 -2.43011212348938
H 12.056604385375977 5.333752155303955 0.8075933456420898
H 11.904840469360352 9.392600059509277 -1.3978681564331055
