18
Generated by QM7 dataset
C 2.177229166030884 0.07077024132013321 -0.14490419626235962
N 4.924871921539307 -0.14896711707115173 -0.08705968409776688
C 5.972536087036133 -1.426629900932312 -2.278386116027832
C 6.191498756408691 1.4186173677444458 -1.9897871017456055
C 8.64177417755127 2.7341692447662354 -1.2295503616333008
C 11.201862335205078 1.9419959783554077 -2.219766855239868
C 10.083294868469238 4.406954765319824 -3.043611764907837
H 1.5873321294784546 1.7023030519485474 0.9836024641990662
H 1.3299514055252075 -1.6158859729766846 0.7037340402603149
H 1.3746246099472046 0.2909233272075653 -2.0439844131469727
H 4.700277805328369 -2.1647191047668457 -3.6996679306030273
H 7.6312055587768555 -2.5711236000061035 -1.9266135692596436
H 4.969942092895508 2.5475587844848633 -3.199911117553711
H 8.630266189575195 3.398691415786743 0.7237651348114014
H 11.292738914489746 0.4257552921772003 -3.5926907062530518
H 12.77696704864502 1.9807542562484741 -0.91050785779953
H 10.901962280273438 6.131953239440918 -2.3032548427581787
H 9.412253379821777 4.555581569671631 -4.972228527069092
