12
Generated by QM7 dataset
N 1.889726161956787 0.0 0.0
C 4.064819812774658 0.0 0.0
C 6.79358434677124 0.0 0.0
O 7.784311294555664 -2.2612085342407227 1.193532109260559
C 8.702037811279297 -1.5962138175964355 3.665520668029785
C 8.90767765045166 1.1958754062652588 3.6471903324127197
C 7.824562072753906 2.109236717224121 1.5627089738845825
H 7.5540289878845215 0.07043009251356125 -1.9217191934585571
H 10.529025077819824 -2.512202024459839 3.9615840911865234
H 7.355135440826416 -2.25485897064209 5.090676307678223
H 9.760908126831055 2.3020832538604736 5.13423490524292
H 7.668338775634766 4.085323333740234 1.0770115852355957
