13
Generated by QM7 dataset
C 1.9445282220840454 -0.3459521532058716 -0.784368634223938
O 4.324354648590088 0.13953737914562225 0.4006408452987671
C 5.495663642883301 2.357414484024048 -0.10130821913480759
N 4.624159812927246 4.612576007843018 -0.503063976764679
N 2.1025848388671875 5.009947299957275 -0.2697772979736328
C 8.208950996398926 2.240194797515869 -0.09660279750823975
C 10.477945327758789 2.134483575820923 -0.08893050998449326
H 1.8004554510116577 -2.3863272666931152 -1.0849862098693848
H 1.7957500219345093 0.5738909244537354 -2.6308579444885254
H 0.4065367877483368 0.22459395229816437 0.4712787866592407
H 1.717647671699524 6.872669219970703 -0.6160885095596313
H 1.5269365310668945 4.6897711753845215 1.5488005876541138
H 12.488311767578125 2.0496726036071777 -0.08307236433029175
