20
Generated by QM7 dataset
C 1.5396921634674072 0.013095801696181297 -0.366021066904068
C 4.395691871643066 -0.35553306341171265 -0.34716159105300903
O 5.144061088562012 -1.5041086673736572 -2.6680288314819336
C 5.77003288269043 2.1737520694732666 -0.056975241750478745
C 8.663412094116211 1.9695292711257935 -0.12239756435155869
C 9.821511268615723 0.29141467809677124 1.9249317646026611
N 9.1631498336792 1.1619547605514526 4.457070350646973
H 0.8837115168571472 0.8782691359519958 1.3935219049453735
H 0.5767444372177124 -1.8036680221557617 -0.6033706665039062
H 0.9555211067199707 1.2057586908340454 -1.9539201259613037
H 4.899020671844482 -1.640490174293518 1.1939667463302612
H 4.223330020904541 -3.087188959121704 -2.818356513977051
H 5.169100284576416 3.099245309829712 1.6965583562850952
H 5.213300704956055 3.4282655715942383 -1.6127867698669434
H 9.453109741210938 3.8810062408447266 0.039003945887088776
H 9.26205825805664 1.257858395576477 -1.9750661849975586
H 11.882182121276855 0.30889463424682617 1.72426176071167
H 9.212377548217773 -1.6714627742767334 1.6944985389709473
H 9.788214683532715 2.9696478843688965 4.692322254180908
H 10.106538772583008 0.09873819351196289 5.756975173950195
