18
Generated by QM7 dataset
C 4.091899394989014 -1.4662952423095703 -2.5502798557281494
N 3.4407756328582764 0.6250458359718323 -0.8796486258506775
C 5.6813483238220215 1.998857855796814 0.12069680541753769
C 7.124569892883301 0.6295433640480042 2.1721456050872803
C 7.144241809844971 3.6898603439331055 -1.6574032306671143
C 5.485818386077881 4.864986419677734 0.3135622441768646
O 6.798799991607666 6.077245712280273 2.3557703495025635
H 5.1575541496276855 -0.81976318359375 -4.20025634765625
H 2.357490062713623 -2.3662772178649902 -3.2276523113250732
H 5.188961029052734 -2.914203405380249 -1.5645610094070435
H 2.2574667930603027 1.8233968019485474 -1.813041090965271
H 8.770124435424805 1.7003189325332642 2.8270492553710938
H 7.825450420379639 -1.1933619976043701 1.4905025959014893
H 5.89736270904541 0.28648248314857483 3.8029227256774902
H 6.543517112731934 3.8279237747192383 -3.6092634201049805
H 9.174318313598633 3.8181159496307373 -1.4154804944992065
H 3.7357051372528076 5.734978675842285 -0.30825212597846985
H 7.092104434967041 7.853437423706055 1.989031195640564
