16
Generated by QM7 dataset
O 2.050523042678833 0.18449395895004272 0.5526881814002991
C 4.7722578048706055 0.08494319021701813 0.2918682098388672
C 5.859492778778076 -1.748166799545288 -1.7666105031967163
C 8.721672058105469 -1.430050253868103 -1.700262188911438
C 8.832013130187988 1.449571132659912 -1.5883525609970093
C 6.00316858291626 1.9860643148422241 -1.619098424911499
N 4.874246120452881 0.23564885556697845 -3.6349637508392334
H 1.5052990913391113 0.30384907126426697 -1.2092357873916626
H 5.658199310302734 -0.026021528989076614 2.1581051349639893
H 5.048554420471191 -3.633319854736328 -1.9337189197540283
H 9.571160316467285 -2.3069586753845215 -0.03068915195763111
H 9.638850212097168 -2.1778337955474854 -3.396801710128784
H 9.805429458618164 2.2558038234710693 -3.2254223823547363
H 9.739648818969727 2.1279072761535645 0.14150269329547882
H 5.334829330444336 3.9342775344848633 -1.635746955871582
H 5.806051254272461 0.2649773955345154 -5.32352876663208
