15
Generated by QM7 dataset
C 5.097687244415283 -2.2410829067230225 -0.5544078350067139
O 4.13814115524292 0.2099674642086029 -0.035130009055137634
C 6.064112186431885 2.073331832885742 0.011924171820282936
C 5.154322624206543 4.286598205566406 1.5342119932174683
C 5.068264484405518 6.366695404052734 0.08207080513238907
C 5.8429765701293945 5.722033977508545 -2.4485559463500977
C 6.401125907897949 3.251009225845337 -2.5491271018981934
H 3.5097126960754395 -3.562474012374878 -0.6059784889221191
H 6.39829158782959 -2.839615821838379 0.9381545186042786
H 6.0499773025512695 -2.2876079082489014 -2.3891241550445557
H 7.845065593719482 1.349585771560669 0.7835371494293213
H 4.6375579833984375 4.1826629638671875 3.502305030822754
H 4.4679741859436035 8.226034164428711 0.6660906672477722
H 5.902257442474365 7.041043758392334 -4.002742290496826
H 7.002474784851074 2.2399868965148926 -4.2125020027160645
