13
Generated by QM7 dataset
O 2.140171527862549 -1.069169282913208 -1.4159907102584839
C 4.201276779174805 -0.5713208913803101 -0.49554288387298584
N 5.875177383422852 1.0772384405136108 -1.5676978826522827
C 8.246084213256836 1.72785222530365 -0.48274943232536316
C 10.48293399810791 -0.00944863073527813 -0.7030537128448486
C 10.438015937805176 2.4291296005249023 -2.150017023086548
H 4.8847150802612305 -1.4118332862854004 1.2837854623794556
H 5.290722846984863 1.9085477590560913 -3.190896987915039
H 8.059568405151367 2.7887823581695557 1.2686865329742432
H 10.271889686584473 -1.751341462135315 -1.7597129344940186
H 11.750808715820312 -0.14970409870147705 0.8995285630226135
H 11.671005249023438 3.9408726692199707 -1.525009036064148
H 10.205805778503418 2.324627637863159 -4.182190895080566
