20
Generated by QM7 dataset
C 1.839913010597229 0.10531444102525711 0.2233656346797943
C 4.723804950714111 0.018235856667160988 -0.023659370839595795
C 5.632139682769775 -2.5585567951202393 -0.9980021715164185
C 5.098235607147217 -2.89296293258667 -3.8162262439727783
C 6.05763053894043 -0.642450213432312 -5.345184803009033
N 5.039767265319824 1.7479966878890991 -4.395786285400391
C 5.714834213256836 2.140568494796753 -1.7397007942199707
H 1.2383753061294556 1.9117037057876587 1.0369305610656738
H 1.1707608699798584 -1.3996446132659912 1.4768965244293213
H 0.8852611184120178 -0.11315680295228958 -1.5974799394607544
H 5.509836673736572 0.29999402165412903 1.8746838569641113
H 4.758802890777588 -4.099930763244629 0.07625044882297516
H 7.678127288818359 -2.7054452896118164 -0.6889752745628357
H 6.004491329193115 -4.6288275718688965 -4.490612983703613
H 3.062244415283203 -3.129915714263916 -4.121511459350586
H 8.129507064819336 -0.5910307168960571 -5.318199634552002
H 5.486366271972656 -0.8734881281852722 -7.32106351852417
H 5.743973731994629 3.199892044067383 -5.450045585632324
H 7.775618553161621 2.2831482887268066 -1.5605547428131104
H 4.940764427185059 3.958296060562134 -1.1182265281677246
