14
Generated by QM7 dataset
N 1.9421281814575195 0.08624710142612457 -0.09807678312063217
C 4.526271820068359 -0.041120439767837524 -0.1652754545211792
C 5.928448677062988 -2.139151096343994 -0.23241741955280304
C 8.571192741394043 -1.3093345165252686 -0.33183589577674866
O 10.345211029052734 -2.7865524291992188 -0.347256064414978
C 8.79268741607666 1.5100423097610474 -0.4408353269100189
C 6.055665016174316 2.3589072227478027 -0.17102020978927612
H 1.063462257385254 -1.5342875719070435 0.45011386275291443
H 1.2302117347717285 1.6571764945983887 0.7519975900650024
H 5.3513264656066895 -4.0850019454956055 -0.24770529568195343
H 9.58820629119873 2.0799269676208496 -2.261643171310425
H 9.964828491210938 2.2077293395996094 1.1102896928787231
H 5.5125203132629395 3.598095178604126 -1.737546443939209
H 5.783469200134277 3.4013936519622803 1.5977445840835571
