17
Generated by QM7 dataset
C -2.751025438308716 1.2515467405319214 0.45597201585769653
C -2.6877951622009277 -1.4864585399627686 -0.4352606236934662
C -0.5250604152679443 -2.9727091789245605 0.6188663840293884
C 1.8781988620758057 -2.2192375659942627 0.8666850924491882
C 3.0066299438476562 0.10030665993690491 -0.0012661165092140436
C 1.8981354236602783 2.2551047801971436 -0.7386561632156372
C -0.8425911068916321 2.9541711807250977 -0.8712771534919739
H -4.644908905029297 2.0147504806518555 0.09087692946195602
H -2.475843667984009 1.3466377258300781 2.5097641944885254
H -2.6944661140441895 -1.61361825466156 -2.5033390522003174
H -4.435489654541016 -2.396456241607666 0.210761159658432
H -1.00234854221344 -4.857729911804199 1.2929506301879883
H 3.2100400924682617 -3.542461633682251 1.713150143623352
H 5.065108776092529 0.036906350404024124 -0.06778447329998016
H 3.1580536365509033 3.7590243816375732 -1.3692766427993774
H -1.0390281677246094 4.855594635009766 -0.06391053646802902
H -1.3600736856460571 3.1247000694274902 -2.872194766998291
