16
Generated by QM7 dataset
N 2.228856325149536 0.5975881218910217 0.07413395494222641
C 4.883694648742676 -0.07437962293624878 -0.06139720231294632
C 5.424175262451172 -1.4326770305633545 -2.414200782775879
C 5.8569416999816895 -2.5608623027801514 -4.337148189544678
C 6.391091346740723 2.31665301322937 -0.23823776841163635
C 7.101307392120361 3.752429246902466 2.128568649291992
C 9.109651565551758 2.4132368564605713 0.6332661509513855
H 1.9083021879196167 1.5065274238586426 1.7368472814559937
H 1.1894314289093018 -1.019563913345337 0.11920392513275146
H 5.423117160797119 -1.2084609270095825 1.58521568775177
H 6.233242988586426 -3.547431707382202 -6.050940990447998
H 5.8865156173706055 3.4450464248657227 -1.8799374103546143
H 6.5847697257995605 2.971386432647705 3.9502079486846924
H 7.046562194824219 5.798586845397949 2.048992156982422
H 10.416075706481934 3.5494914054870605 -0.46175459027290344
H 9.943758010864258 0.7228013277053833 1.4353036880493164
