17
Generated by QM7 dataset
C 1.9968924522399902 -0.35974717140197754 0.23549766838550568
C 4.854460716247559 -0.08205191045999527 -0.12959742546081543
C 5.717517375946045 -1.646877408027649 -2.4106290340423584
C 5.590320110321045 2.7006266117095947 -0.22977180778980255
C 5.928618907928467 4.018634796142578 -2.373363733291626
C 6.000144958496094 3.990496873855591 2.11222243309021
C 6.343319416046143 5.064522743225098 4.080334663391113
H 1.3585618734359741 0.6186585426330566 1.9447171688079834
H 1.4738352298736572 -2.3536159992218018 0.42636001110076904
H 0.9511180520057678 0.42036956548690796 -1.3727915287017822
H 5.788306713104248 -0.9190872311592102 1.5263129472732544
H 4.711540699005127 -1.1157320737838745 -4.139804363250732
H 5.3566179275512695 -3.659057855606079 -2.080399513244629
H 7.748727321624756 -1.4234739542007446 -2.74159574508667
H 5.6575188636779785 3.186002731323242 -4.224955081939697
H 6.473559379577637 5.998463153839111 -2.335814952850342
H 6.649530410766602 6.019268989562988 5.825779914855957
