18
Generated by QM7 dataset
C 3.7288453578948975 -1.1046583652496338 1.1052252054214478
N 6.48382043838501 -1.1372371912002563 0.9744184017181396
C 7.426755905151367 1.2163033485412598 -0.15726301074028015
C 10.323385238647461 1.3025692701339722 -0.24849899113178253
C 11.487323760986328 -0.779360830783844 -1.8739091157913208
C 11.2045259475708 3.8347268104553223 -1.2762454748153687
O 9.799004554748535 5.51877498626709 -2.0292258262634277
H 3.0575201511383057 -2.880150556564331 1.9260467290878296
H 2.8857061862945557 -0.9162715077400208 -0.7754113078117371
H 3.0528526306152344 0.4352984130382538 2.3095476627349854
H 7.019897937774658 -2.6388134956359863 -0.10550341010093689
H 6.751103401184082 2.824554681777954 0.9649130702018738
H 6.658109664916992 1.435700535774231 -2.0707995891571045
H 11.081070899963379 1.158855676651001 1.6760926246643066
H 10.780831336975098 -0.6917720437049866 -3.8185317516326904
H 11.073738098144531 -2.658334493637085 -1.1162045001983643
H 13.548051834106445 -0.5883851051330566 -1.9567358493804932
H 13.274249076843262 4.11612606048584 -1.2840499877929688
