15
Generated by QM7 dataset
C 1.751511573791504 0.7853134870529175 0.15533548593521118
N 4.470582008361816 1.2498081922531128 -0.011905274353921413
C 6.046632289886475 -1.0322061777114868 -0.06967420130968094
C 6.695167541503906 -1.8859277963638306 2.580024242401123
O 6.057913780212402 -3.940230131149292 3.4563846588134766
C 5.408018112182617 3.5317280292510986 0.7743719816207886
N 7.719606876373291 4.2594428062438965 0.8885303139686584
H 0.6877091526985168 2.4516172409057617 -0.4572948217391968
H 1.212259292602539 0.3354641795158386 2.101621150970459
H 1.1854441165924072 -0.7822521328926086 -1.0707566738128662
H 7.807119846343994 -0.689939022064209 -1.1044692993164062
H 5.072988510131836 -2.578096628189087 -1.0465303659439087
H 7.83510684967041 -0.552952766418457 3.707812786102295
H 3.9233736991882324 4.866573810577393 1.3824669122695923
H 8.912647247314453 2.9254283905029297 0.17925941944122314
