18
Generated by QM7 dataset
C 1.8804854154586792 -0.026286089792847633 -0.028629351407289505
C 4.7859392166137695 -0.04155507683753967 0.025322331115603447
C 5.681026935577393 -1.4332438707351685 2.4152400493621826
C 5.7786126136779785 -1.4548813104629517 -2.3126845359802246
C 5.739457130432129 2.714780569076538 0.017744528129696846
O 8.42158317565918 2.8614799976348877 -0.015552446246147156
H 1.169627070426941 0.9320884943008423 -1.7204444408416748
H 1.1086645126342773 0.953253448009491 1.6238983869552612
H 1.1205698251724243 -1.9520682096481323 -0.03135055676102638
H 5.079054832458496 -0.43544960021972656 4.1262359619140625
H 7.742151260375977 -1.6072688102722168 2.473273515701294
H 4.89875602722168 -3.3488025665283203 2.4969329833984375
H 5.1950459480285645 -0.5069946050643921 -4.058016777038574
H 5.051294803619385 -3.392285108566284 -2.3761606216430664
H 7.845349311828613 -1.5649389028549194 -2.313572883605957
H 5.055943489074707 3.7512197494506836 1.6753367185592651
H 5.050009727478027 3.7126882076263428 -1.6601622104644775
H 9.03283405303955 2.301403045654297 1.6230669021606445
