14
Generated by QM7 dataset
C 1.7635868787765503 -0.01277454849332571 0.01277454849332571
C 4.626899719238281 -0.09095251560211182 0.005914842709898949
O 5.547612190246582 2.4382190704345703 0.014739863574504852
C 8.240623474121094 2.5170018672943115 0.007256548386067152
C 9.073406219482422 5.159632682800293 0.018443727865815163
C 9.75520133972168 7.325013160705566 0.02774117887020111
H 0.9737191796302795 -1.9223995208740234 0.006236096378415823
H 1.0585490465164185 1.0075830221176147 -1.643721580505371
H 1.0660700798034668 0.9931266903877258 1.6812326908111572
H 5.298583984375 -1.0755376815795898 -1.6869018077850342
H 5.3063130378723145 -1.0900129079818726 1.6871097087860107
H 8.955979347229004 1.5578713417053223 -1.682706594467163
H 8.965956687927246 1.540542483329773 1.6829522848129272
H 10.341034889221191 9.25100326538086 0.03618825599551201
