18
Generated by QM7 dataset
C 1.4472090005874634 0.11774883419275284 -0.03821026161313057
C 4.239846229553223 0.04909508675336838 0.323785662651062
C 5.960555076599121 -1.646499514579773 -1.1986533403396606
C 5.209218978881836 -2.78590989112854 -3.6800336837768555
C 5.589318752288818 -0.6492154002189636 -5.603604793548584
N 5.294842720031738 1.7333323955535889 -4.195040702819824
C 6.025864124298096 1.175541877746582 -1.569474220275879
H 0.6792998313903809 1.8657455444335938 0.7594998478889465
H 0.5704705119132996 -1.4718132019042969 0.9543116688728333
H 0.8698409199714661 0.02689080312848091 -2.020703077316284
H 4.709915637969971 0.2943815290927887 2.3055036067962646
H 7.556731224060059 -2.5473885536193848 -0.2994460165500641
H 6.391507148742676 -4.41763162612915 -4.150386810302734
H 3.237006425857544 -3.4116926193237305 -3.637477159500122
H 7.513834476470947 -0.747651219367981 -6.366714000701904
H 4.259650707244873 -0.777830183506012 -7.180184364318848
H 6.402373313903809 3.096977710723877 -4.983736991882324
H 7.6452836990356445 2.204554557800293 -0.8418352007865906
