17
Generated by QM7 dataset
C 6.005568504333496 -2.334416389465332 1.2741856575012207
O 4.584589004516602 -0.24094007909297943 0.3667580485343933
C 5.845055103302002 1.9813212156295776 0.0016629589954391122
C 8.29873275756836 2.506929636001587 0.35872671008110046
C 9.42032241821289 5.079470634460449 -0.12785887718200684
C 11.420900344848633 5.015219688415527 -2.2111685276031494
O 10.298327445983887 4.596834182739258 -4.62034273147583
H 4.719950199127197 -3.9420254230499268 1.4640275239944458
H 6.8061699867248535 -1.9325661659240723 3.1391942501068115
H 7.489532470703125 -2.8583807945251465 -0.06897500157356262
H 4.509774684906006 3.387655258178711 -0.6720622181892395
H 9.598447799682617 1.0760478973388672 1.0467760562896729
H 10.287272453308105 5.746033668518066 1.6309469938278198
H 7.93341064453125 6.428300380706787 -0.6419021487236023
H 12.837249755859375 3.5441246032714844 -1.8754397630691528
H 12.399778366088867 6.835328578948975 -2.295488119125366
H 9.3193359375 3.042836904525757 -4.506807804107666
