20
Generated by QM7 dataset
C 1.8042160272598267 -0.1450364738702774 -0.1070907786488533
C 4.6140875816345215 -0.332251638174057 -0.15905824303627014
C 5.9510498046875 -1.2512822151184082 -2.498973846435547
C 6.13284158706665 1.4914096593856812 -1.739228367805481
C 8.586915969848633 2.5369763374328613 -0.7699689269065857
C 8.143301963806152 4.671724319458008 1.1318514347076416
N 10.53579044342041 5.726777076721191 2.0139000415802
H 1.2140923738479614 1.3011897802352905 1.2491090297698975
H 0.9807489514350891 -1.9509344100952148 0.47621098160743713
H 1.022058367729187 0.3508654534816742 -1.9577184915542603
H 5.366784572601318 -0.9146841168403625 1.656363844871521
H 4.83382511138916 -1.7118650674819946 -4.154335975646973
H 7.591370105743408 -2.4542629718780518 -2.251173973083496
H 5.129831790924072 2.8549416065216064 -2.896043062210083
H 9.682502746582031 3.244603157043457 -2.3822076320648193
H 9.716669082641602 1.0369493961334229 0.11330798268318176
H 7.068709373474121 3.96475887298584 2.7538223266601562
H 7.019123077392578 6.1756815910339355 0.26087668538093567
H 11.5717191696167 4.347995281219482 2.8697760105133057
H 10.182127952575684 7.052306652069092 3.3658668994903564
