11
Generated by QM7 dataset
O 1.6961615085601807 1.0855909585952759 -1.3613587617874146
N 4.290358543395996 0.8810470104217529 -1.8337335586547852
C 5.5110273361206055 2.0022027492523193 -0.032862339168787
C 8.350529670715332 2.07975697517395 0.0
C 9.261396408081055 4.651995658874512 0.0
C 10.012166023254395 6.7720794677734375 0.0
H 0.9588092565536499 0.2378787249326706 -2.8235154151916504
H 4.516161918640137 2.9128806591033936 1.5616885423660278
H 9.085236549377441 1.0349273681640625 -1.6279990673065186
H 8.97185230255127 1.0981576442718506 1.7127721309661865
H 10.685115814208984 8.670876502990723 -0.008484870195388794
