15
Generated by QM7 dataset
N 2.0215535163879395 0.12508097290992737 -0.7511094212532043
N 4.437398433685303 0.08787226676940918 0.09123598039150238
C 5.573955059051514 2.252931594848633 0.17075565457344055
C 8.244950294494629 2.4132747650146484 1.1320782899856567
C 8.695820808410645 5.249016761779785 1.303646445274353
C 6.445099830627441 6.407853603363037 0.05446190759539604
C 4.639334201812744 4.7707839012146 -0.5972668528556824
H 1.3554060459136963 -1.6891505718231201 -0.8392651677131653
H 0.8698409199714661 1.0248929262161255 0.5144590139389038
H 9.52270793914795 1.5143131017684937 -0.22708839178085327
H 8.4307861328125 1.4806948900222778 2.9689109325408936
H 10.450430870056152 5.784508228302002 0.34778520464897156
H 8.818690299987793 5.866239070892334 3.2754623889923096
H 6.298835277557373 8.422849655151367 -0.2690592110157013
H 2.857776165008545 5.12752628326416 -1.5058850049972534
