12
Generated by QM7 dataset
C 3.8484840393066406 -2.1415510177612305 -0.5440521836280823
C 6.009159088134766 -0.8355045914649963 -0.38569310307502747
C 5.982948303222656 1.9530508518218994 0.07413395494222641
O 3.9808592796325684 3.0914218425750732 0.39680469036102295
C 8.491767883300781 3.2924132347106934 0.27115681767463684
C 9.97028923034668 2.999429941177368 -2.0415844917297363
N 11.174479484558105 2.720392942428589 -3.8534538745880127
H 3.861201763153076 -4.163463592529297 -0.8823509216308594
H 2.0170559883117676 -1.2291535139083862 -0.3489190340042114
H 7.820178031921387 -1.7711458206176758 -0.5894055962562561
H 9.506720542907715 2.547067403793335 1.9134043455123901
H 8.1358003616333 5.3002848625183105 0.6299591064453125
