19
Generated by QM7 dataset
C 1.7779110670089722 0.1340571790933609 0.00018897261179517955
C 4.636310577392578 0.007369931787252426 0.04627939313650131
C 6.010122776031494 1.8365681171417236 1.8557299375534058
N 7.839888095855713 -0.20811553299427032 2.4277122020721436
C 5.84741735458374 -2.088071823120117 1.6999220848083496
C 6.911635398864746 -4.392479419708252 0.3095749318599701
N 8.44202995300293 -5.934042453765869 2.017244815826416
H 0.9984368085861206 -1.459529995918274 -1.063462257385254
H 1.1432275772094727 1.878727912902832 -0.9118873476982117
H 0.976912796497345 0.08222198486328125 1.9069037437438965
H 5.414556503295898 0.08116373419761658 -1.879634976387024
H 4.912286281585693 2.4325687885284424 3.5089757442474365
H 6.835668563842773 3.5134165287017822 0.9728310108184814
H 9.356431007385254 -0.20613132417201996 1.2378273010253906
H 4.6674723625183105 -2.6452953815460205 3.3178677558898926
H 8.075045585632324 -3.80511474609375 -1.300774097442627
H 5.360605239868164 -5.544135093688965 -0.43140557408332825
H 9.68717098236084 -4.783350467681885 2.9394311904907227
H 9.486652374267578 -7.189840793609619 1.0019139051437378
