16
Generated by QM7 dataset
C 1.2939332723617554 -0.03667958453297615 0.41267839074134827
C 4.117259502410889 -0.10761990398168564 0.39920464158058167
C 5.577942371368408 1.8812791109085083 -0.19031432271003723
C 8.402950286865234 1.854652762413025 -0.17684057354927063
N 9.239380836486816 2.248434066772461 -2.7354540824890137
C 11.612235069274902 3.1467151641845703 -3.2424299716949463
O 13.163700103759766 3.8296055793762207 -1.6736170053482056
H 0.5477938055992126 -1.462043285369873 -0.8863382339477539
H 0.5550503730773926 1.8081845045089722 -0.16249755024909973
H 0.5876103639602661 -0.4517957270145416 2.3112294673919678
H 4.983056545257568 -1.8988913297653198 0.9179722666740417
H 4.702300071716309 3.6774637699127197 -0.675955057144165
H 9.169896125793457 0.04344480484724045 0.46853870153427124
H 9.13693904876709 3.3468940258026123 1.0540703535079956
H 8.234254837036133 1.4660495519638062 -4.16013765335083
H 11.999061584472656 3.197360038757324 -5.28938102722168
