11
Generated by QM7 dataset
O 1.8850017786026 0.6809439063072205 -2.021723508834839
C 3.670377254486084 -0.059753138571977615 -0.7357837557792664
C 5.802252769470215 1.6350666284561157 0.02917737141251564
C 8.278380393981934 0.2747661769390106 0.20771870017051697
O 8.55204963684082 -2.0015411376953125 -0.10983088612556458
C 10.449127197265625 1.8066726922988892 0.8715038895606995
C 12.244593620300293 3.074338674545288 1.4416720867156982
H 3.6477949619293213 -1.9680742025375366 0.10486090183258057
H 5.346848011016846 2.421476125717163 1.885890007019043
H 5.965846538543701 3.164308547973633 -1.357938289642334
H 13.849822044372559 4.177636623382568 1.9491580724716187
