17
Generated by QM7 dataset
C 1.700451135635376 -0.09267216920852661 0.18532544374465942
C 4.591770172119141 0.003571582492440939 0.16242195665836334
C 5.523858547210693 2.5128443241119385 -1.0380454063415527
C 7.393402099609375 2.2516086101531982 -3.1612472534179688
C 8.172215461730957 0.010563569143414497 -4.042181015014648
C 7.267621994018555 -2.3243441581726074 -2.9831595420837402
C 5.630155563354492 -2.3625922203063965 -1.0533900260925293
H 0.9205989837646484 1.5475534200668335 1.1795103549957275
H 1.0171072483062744 -1.7919138669967651 1.1526384353637695
H 0.9302932620048523 -0.10351920127868652 -1.7374330759048462
H 5.220179557800293 -0.013946179300546646 2.140568494796753
H 6.404924392700195 3.6610419750213623 0.448715478181839
H 3.9200289249420166 3.6263465881347656 -1.7378299236297607
H 8.115182876586914 3.979234218597412 -4.002553462982178
H 9.520610809326172 -0.09837914258241653 -5.5855393409729
H 7.975116729736328 -4.075610160827637 -3.7909040451049805
H 5.024951934814453 -4.171041488647461 -0.2875218391418457
