13
Generated by QM7 dataset
C 4.0134758949279785 0.4639088809490204 1.6312304735183716
C 4.7034149169921875 0.0927666574716568 -1.196687936782837
C 5.092150688171387 2.8136699199676514 -1.0979875326156616
C 4.995510101318359 5.151279926300049 -2.08803391456604
C 4.762960433959961 6.605991363525391 0.1804310530424118
N 4.62706995010376 5.180325031280518 2.2971131801605225
N 5.218270778656006 2.8834009170532227 1.4325069189071655
H 4.957450866699219 -0.7965384721755981 2.9726526737213135
H 2.012293815612793 0.5959251523017883 2.151585578918457
H 3.2898054122924805 -0.5676926374435425 -2.546273708343506
H 6.439373970031738 -1.0007045269012451 -1.4865530729293823
H 4.820483684539795 5.774776458740234 -4.017822265625
H 4.504842758178711 8.630189895629883 0.3482765257358551
