19
Generated by QM7 dataset
C 1.8327887058258057 0.008201410993933678 -0.08798564970493317
C 4.712032318115234 -0.015911493450403214 -0.03316469490528107
C 5.782316207885742 -2.3928279876708984 1.240775227546692
C 6.3940019607543945 -1.641945242881775 3.9646077156066895
C 6.659186840057373 1.1683231592178345 3.7890899181365967
C 7.7629194259643555 2.659090280532837 5.897419452667236
C 5.741422653198242 2.055133819580078 1.6026389598846436
H 1.1171305179595947 -1.5491218566894531 -1.2477483749389648
H 1.1257665157318115 1.7788747549057007 -0.8939538598060608
H 1.0246095657348633 -0.19193948805332184 1.8083734512329102
H 5.44620943069458 0.14535772800445557 -1.962386131286621
H 7.536417007446289 -2.9526593685150146 0.28136131167411804
H 4.503273963928223 -4.017557621002197 1.1530542373657227
H 8.132512092590332 -2.5578389167785645 4.607303619384766
H 4.850549221038818 -2.1410975456237793 5.249186992645264
H 7.806288719177246 4.680908203125 5.458530426025391
H 9.702723503112793 2.047896146774292 6.273059368133545
H 6.647848606109619 2.4038450717926025 7.620415210723877
H 5.687905788421631 4.029103755950928 1.073553442955017
