15
Generated by QM7 dataset
O 5.795714378356934 -1.8938835859298706 -1.098497748374939
C 4.513535499572754 0.09718861430883408 0.1845884472131729
C 6.0549468994140625 2.52779221534729 0.011017103679478168
C 6.334815502166748 3.503892421722412 -2.6789891719818115
C 6.035841941833496 6.265065670013428 -2.1964097023010254
N 5.230818748474121 6.874634742736816 0.028459275141358376
N 4.812584400177002 4.666376113891602 1.2561010122299194
H 4.747426509857178 -3.395686626434326 -0.9298208355903625
H 4.264715194702148 -0.46347424387931824 2.161468744277954
H 2.6422340869903564 0.32495731115341187 -0.6724968552589417
H 7.943898677825928 2.2364342212677 0.8163049817085266
H 4.84803581237793 2.8890321254730225 -3.9767396450042725
H 8.195496559143066 3.1180858612060547 -3.486752510070801
H 6.459216117858887 7.653390884399414 -3.681753396987915
H 5.228399753570557 4.786506175994873 3.1371910572052
