17
Generated by QM7 dataset
C 2.2210896015167236 0.18071450293064117 -0.2901296615600586
N 4.969356060028076 0.11510322242975235 -0.09741538017988205
C 6.20448112487793 -1.2040201425552368 -2.1672701835632324
C 6.412294387817383 1.6534347534179688 -1.912213921546936
C 5.1598591804504395 3.271852970123291 -3.8844265937805176
C 8.852459907531738 2.7356998920440674 -0.9098086357116699
H 1.4896143674850464 1.8192771673202515 0.7366530299186707
H 1.4444688558578491 -1.5116108655929565 0.6122901439666748
H 1.4661251306533813 0.23472288250923157 -2.213606357574463
H 5.044907569885254 -1.9978184700012207 -3.6568846702575684
H 7.817324638366699 -2.355165719985962 -1.6465939283370972
H 3.711686611175537 2.26593279838562 -4.966389179229736
H 6.56277322769165 3.9340507984161377 -5.258068561553955
H 4.291057586669922 4.934830665588379 -3.012299060821533
H 9.682276725769043 1.5567375421524048 0.5769144892692566
H 8.529373168945312 4.620304584503174 -0.11765434592962265
H 10.242523193359375 2.900502920150757 -2.4337027072906494
