13
Generated by QM7 dataset
C 1.941901445388794 -0.6367621421813965 -0.026361679658293724
C 4.709216594696045 0.12001650780439377 0.031331658363342285
C 4.973305702209473 2.9465365409851074 0.06207750365138054
N 4.96928071975708 4.489592552185059 -1.843711256980896
O 4.708177089691162 3.184490919113159 -4.13126277923584
C 5.1965765953063965 4.230435371398926 2.4628989696502686
N 5.371508598327637 5.193779945373535 4.429518222808838
H 1.7593728303909302 -2.696620225906372 -0.03548905625939369
H 0.9977753758430481 0.10333022475242615 -1.7121107578277588
H 0.9356223344802856 0.094429612159729 1.6275266408920288
H 5.696787357330322 -0.6576436161994934 -1.6117851734161377
H 5.612032890319824 -0.6693788170814514 1.7194995880126953
H 4.734859943389893 4.546360015869141 -5.377726078033447
