14
Generated by QM7 dataset
N 1.7202177047729492 0.17068006098270416 -0.5918999910354614
C 3.8655292987823486 0.2591003477573395 0.8522664904594421
O 4.188804626464844 -1.359998106956482 2.488429069519043
C 5.695332050323486 2.4190385341644287 0.21125248074531555
C 4.785107612609863 5.14408016204834 0.5587542057037354
O 7.097433567047119 5.818599224090576 1.8596038818359375
C 7.666524410247803 3.1566741466522217 2.2043466567993164
H 1.3627004623413086 1.3659884929656982 -2.0358965396881104
H 0.4950515627861023 -1.26108980178833 -0.25947830080986023
H 6.571106910705566 2.121349811553955 -1.647671103477478
H 3.1361706256866455 5.41296911239624 1.7787425518035889
H 4.542599201202393 6.218011379241943 -1.1899983882904053
H 9.624791145324707 2.718559980392456 1.7115060091018677
H 7.2845354080200195 2.5639047622680664 4.149025917053223
