11
Generated by QM7 dataset
C 4.050854682922363 0.8409848213195801 1.3193879127502441
N 3.6307876110076904 0.5747035145759583 -1.3924635648727417
C 5.664737701416016 2.050541877746582 -1.8769137859344482
N 6.4519219398498535 3.8869588375091553 -3.3707234859466553
O 7.642147064208984 5.58852481842041 -1.658669352531433
C 7.192127704620361 4.7874321937561035 0.7917574644088745
C 6.121125221252441 2.482306480407715 0.6065453886985779
H 4.573269367218018 -0.9660279750823975 2.180403709411621
H 2.497102975845337 1.7096163034439087 2.3647654056549072
H 3.7912063598632812 -1.2445735931396484 -1.9849494695663452
H 7.543616771697998 6.1730170249938965 2.245826244354248
