15
Generated by QM7 dataset
C 1.5532604455947876 0.5532362461090088 -0.46192464232444763
C 3.6621570587158203 -1.304534673690796 -0.2843659818172455
C 5.135765552520752 -2.0277516841888428 -2.603778123855591
N 6.251308441162109 -0.40770840644836426 -0.6568877100944519
N 7.835824966430664 -1.8718304634094238 0.8465595245361328
C 8.639998435974121 -0.9458646178245544 3.1301612854003906
O 10.324688911437988 -1.923174262046814 4.3797993659973145
H 1.3357340097427368 1.5594019889831543 1.3338065147399902
H -0.22398923337459564 -0.42724817991256714 -0.8656835556030273
H 1.8619471788406372 1.9577751159667969 -1.9523327350616455
H 3.30214524269104 -2.7398951053619385 1.13296639919281
H 4.705644607543945 -1.0960034132003784 -4.374753952026367
H 5.76315450668335 -3.9673099517822266 -2.7887444496154785
H 8.958492279052734 -3.216635227203369 0.06710417568683624
H 7.605637550354004 0.7523188591003418 3.757115602493286
