18
Generated by QM7 dataset
C 1.9220592975616455 -1.9323394298553467 1.0384800434112549
C 4.447206020355225 -1.3906872272491455 -0.2679064869880676
C 5.820715427398682 -3.880363702774048 -0.7892819046974182
N 3.933049201965332 0.024755412712693214 -2.59599232673645
C 6.2111897468566895 1.0484389066696167 -3.769833564758301
C 5.495172500610352 2.641421318054199 -5.929582595825195
C 4.902214050292969 3.9365074634552 -7.697629451751709
H 0.9310680627822876 -0.17436502873897552 1.5026724338531494
H 2.220484972000122 -2.9627504348754883 2.809285879135132
H 0.6759172677993774 -3.073960781097412 -0.15864251554012299
H 5.588109016418457 -0.2385968267917633 1.0238536596298218
H 4.80511999130249 -5.0269551277160645 -2.1827847957611084
H 5.9897894859313965 -4.999327182769775 0.9447497129440308
H 7.73820161819458 -3.558732271194458 -1.4950568675994873
H 2.7538599967956543 1.4970221519470215 -2.202645778656006
H 7.439606189727783 -0.47190240025520325 -4.445373058319092
H 7.284497261047363 2.187849283218384 -2.410421371459961
H 4.362961769104004 5.070815563201904 -9.270599365234375
