13
Generated by QM7 dataset
C 1.889726161956787 0.0 0.0
C 4.618490695953369 0.0 0.0
C 6.86756706237793 0.0 0.0
C 9.596331596374512 0.0 0.0
O 10.505970001220703 -1.3246979713439941 -2.16059947013855
C 10.61820125579834 2.6851308345794678 -0.02689080312848091
O 11.506712913513184 3.7730460166931152 1.8264013528823853
H 1.1451740264892578 1.9291836023330688 0.022279871627688408
H 1.1450417041778564 -0.9838669896125793 1.6595196723937988
H 1.1451362371444702 -0.9452032446861267 -1.681894063949585
H 10.347024917602539 -0.9531967639923096 1.674920916557312
H 9.386439323425293 -0.9345073699951172 -3.564760446548462
H 10.41562271118164 3.6978349685668945 -1.8386846780776978
