15
Generated by QM7 dataset
N 1.7809723615646362 0.03163401409983635 0.7210627794265747
C 4.511003017425537 0.023224733769893646 0.21323668956756592
C 5.351345539093018 2.27311372756958 -1.3861141204833984
O 8.000325202941895 1.996004343032837 -1.8209589719772339
N 8.541808128356934 0.002796794753521681 -3.4979774951934814
C 7.282229900360107 -2.060028314590454 -3.064833402633667
C 5.321033954620361 -2.4371798038482666 -1.0486657619476318
H 1.290021538734436 1.6551355123519897 1.63406503200531
H 1.334808111190796 -1.4131749868392944 1.9126107692718506
H 5.493055820465088 0.14220188558101654 2.0352349281311035
H 5.056982517242432 4.048322677612305 -0.3645092844963074
H 4.342628479003906 2.4038071632385254 -3.1948654651641846
H 7.6879730224609375 -3.7061686515808105 -4.275826454162598
H 3.721891164779663 -3.38313889503479 -1.9636900424957275
H 6.068080902099609 -3.7690021991729736 0.3467080593109131
