17
Generated by QM7 dataset
C 1.666927456855774 1.522155523300171 -1.0117216110229492
N 4.278321266174316 0.7261839509010315 -1.1355931758880615
C 6.249532222747803 2.033968925476074 -0.07124267518520355
N 6.155253887176514 4.442954063415527 0.37242722511291504
C 8.668722152709961 0.7854457497596741 0.6709283590316772
C 9.30077838897705 -1.5994453430175781 0.08556679636240005
C 11.743287086486816 -2.781015396118164 0.8686315417289734
H 0.46916231513023376 0.11918503046035767 -1.9460210800170898
H 1.3817487955093384 3.327127456665039 -1.976388931274414
H 1.0499885082244873 1.690775752067566 0.9540660381317139
H 4.457920551300049 -1.1782820224761963 -1.0474940538406372
H 4.478858947753906 5.148388862609863 -0.25764524936676025
H 9.948802947998047 1.9899760484695435 1.7323875427246094
H 8.063216209411621 -2.7874972820281982 -1.0330754518508911
H 12.906148910522461 -1.5033527612686157 2.0076451301574707
H 12.831467628479004 -3.327958822250366 -0.803190290927887
H 11.37290096282959 -4.480956554412842 1.9881619215011597
