14
Generated by QM7 dataset
O 1.7112226486206055 -0.00602822657674551 0.21452170610427856
C 4.419389247894287 0.010393493808805943 0.025700274854898453
C 5.7963948249816895 1.9929429292678833 1.6603323221206665
C 7.779341220855713 -0.03762444853782654 2.314366579055786
O 10.103515625 0.01999330334365368 0.895730197429657
C 5.828576564788818 -2.0518646240234375 1.5289585590362549
H 1.1702884435653687 -1.4852491617202759 -0.7330247759819031
H 5.0058088302612305 0.08551010489463806 -1.961044430732727
H 4.710463523864746 2.6585612297058105 3.294888734817505
H 6.509634017944336 3.635209560394287 0.6253103613853455
H 8.230929374694824 -0.10242315381765366 4.333822250366211
H 9.630101203918457 0.22555771470069885 -0.8665528297424316
H 6.566684722900391 -3.6115312576293945 0.38920798897743225
H 4.752793312072754 -2.8395025730133057 3.115478038787842
