12
Generated by QM7 dataset
O 1.8719438314437866 -0.15161272883415222 -0.012169836089015007
C 4.363604545593262 0.09327688068151474 5.6691784266149625e-05
C 5.923308849334717 2.180743932723999 0.00924076046794653
C 8.420052528381348 1.2539466619491577 0.020560219883918762
O 10.579877853393555 2.571312665939331 0.0320497564971447
C 8.354366302490234 -1.3317844867706299 0.018179165199398994
N 5.858226776123047 -2.0246524810791016 0.005593589507043362
H 1.1562856435775757 1.5443220138549805 -0.014267432503402233
H 5.3218278884887695 4.13141393661499 0.00788015779107809
H 10.218599319458008 4.370785236358643 0.031766295433044434
H 9.843998908996582 -2.7293882369995117 0.024264084175229073
H 5.187430381774902 -3.8112940788269043 0.000944863073527813
