19
Generated by QM7 dataset
C 1.8298596143722534 0.05448080599308014 0.1584913283586502
C 4.712617874145508 0.04378495365381241 -0.10170505940914154
C 5.709202766418457 -2.517247438430786 -1.1269382238388062
N 5.135104179382324 -2.93962025642395 -3.8125979900360107
C 6.02079963684082 -0.7860127091407776 -5.324775695800781
C 5.051105499267578 1.781803846359253 -4.338641166687012
N 5.594401836395264 2.2135684490203857 -1.636294960975647
H 1.1642414331436157 1.8710367679595947 0.8969207406044006
H 1.2251850366592407 -1.414535641670227 1.4867609739303589
H 0.865267813205719 -0.2984633445739746 -1.6373909711837769
H 5.489068508148193 0.3012223541736603 1.8029121160507202
H 4.900154113769531 -4.071471691131592 -0.022884583100676537
H 7.764677047729492 -2.6022284030914307 -0.8581246137619019
H 6.001959323883057 -4.550290584564209 -4.412775039672852
H 8.093867301940918 -0.7750900983810425 -5.351666450500488
H 5.390594959259033 -1.0412579774856567 -7.278714656829834
H 5.938143253326416 3.3018805980682373 -5.430789470672607
H 3.013678550720215 1.9464367628097534 -4.675390243530273
H 7.50956392288208 2.3179001808166504 -1.4439964294433594
