21
Generated by QM7 dataset
C 5.868619918823242 -2.06072735786438 -1.1256153583526611
C 4.6132941246032715 0.2361212819814682 0.096073679625988
C 3.579519271850586 -0.44909340143203735 2.704859495162964
C 6.468740463256836 2.388878345489502 0.30152469873428345
C 6.905531883239746 4.125082969665527 -1.9199806451797485
C 5.528318405151367 5.082248210906982 0.37979716062545776
C 6.750630855560303 6.954570293426514 2.0916056632995605
H 6.574962139129639 -1.593549370765686 -3.0139620304107666
H 4.5251569747924805 -3.622699499130249 -1.314380168914795
H 7.476984977722168 -2.7243802547454834 -0.0040818084962666035
H 3.0146801471710205 0.8038328289985657 -1.0981954336166382
H 5.0958733558654785 -1.0440737009048462 3.9824278354644775
H 2.2047245502471924 -1.9895603656768799 2.57289981842041
H 2.6362056732177734 1.1767702102661133 3.5710532665252686
H 8.099725723266602 1.9036345481872559 1.4477570056915283
H 5.816009998321533 3.827867031097412 -3.629956007003784
H 8.819408416748047 4.772427558898926 -2.2618699073791504
H 3.514096975326538 5.419394493103027 0.20856907963752747
H 8.789342880249023 6.642614364624023 2.2603580951690674
H 5.922590732574463 6.833287715911865 3.9831459522247314
H 6.450372219085693 8.872962951660156 1.3781583309173584
