18
Generated by QM7 dataset
C 1.9193003177642822 -0.29984283447265625 0.5690910220146179
N 4.558038234710693 0.27281975746154785 0.0084281787276268
C 5.538106918334961 2.2115843296051025 1.7864148616790771
C 7.978272438049316 0.63904869556427 1.962140440940857
C 6.265047073364258 -1.6137505769729614 1.2147915363311768
C 7.329227447509766 -3.363145589828491 -0.6898256540298462
C 9.044795989990234 -5.097064018249512 -0.017668940126895905
H 1.3121880292892456 -1.9569625854492188 -0.5117189288139343
H 0.719853401184082 1.283577561378479 -0.011905274353921413
H 1.5529391765594482 -0.6753125190734863 2.573561429977417
H 4.532470226287842 2.382396697998047 3.592501640319824
H 5.763796806335449 4.096680641174316 0.9687303304672241
H 9.417695999145508 1.1698349714279175 0.5677871108055115
H 8.850041389465332 0.5373625159263611 3.8321566581726074
H 5.463689804077148 -2.60317325592041 2.857133626937866
H 6.7009687423706055 -3.225705862045288 -2.6395316123962402
H 9.712644577026367 -5.275567531585693 1.913574457168579
H 9.828862190246582 -6.379715442657471 -1.413930892944336
