18
Generated by QM7 dataset
C 1.6800987720489502 0.21098792552947998 0.09354144334793091
C 4.528841972351074 -0.04329362511634827 0.03838033601641655
C 6.030871868133545 1.7347686290740967 1.763870358467102
O 7.518162250518799 -0.35783854126930237 2.7307486534118652
C 5.690021991729736 -2.147787094116211 1.6874498128890991
C 7.0131516456604 -4.301772594451904 0.28971391916275024
N 8.4082612991333 -5.911535739898682 2.0578360557556152
H 0.7905102372169495 -1.3644012212753296 -0.9106212258338928
H 1.0886712074279785 1.96614670753479 -0.8283047676086426
H 0.9468661546707153 0.22894032299518585 2.0291500091552734
H 5.24552059173584 -0.03450639918446541 -1.9072060585021973
H 4.975081920623779 2.6566715240478516 3.285799026489258
H 7.206376075744629 3.1248133182525635 0.7858614921569824
H 4.434771537780762 -2.8348159790039062 3.192012071609497
H 8.33106517791748 -3.547696352005005 -1.1186989545822144
H 5.617059707641602 -5.455714702606201 -0.7095165848731995
H 9.581780433654785 -4.771331787109375 3.0885684490203857
H 9.556231498718262 -7.09790563583374 1.0679031610488892
