17
Generated by QM7 dataset
C 4.3105788230896 0.31940150260925293 4.572513580322266
O 6.374499797821045 1.9134422540664673 3.9320476055145264
C 5.906962871551514 3.5213723182678223 1.7932745218276978
C 3.9951834678649902 5.583101272583008 2.4663381576538086
C 8.471075057983398 4.653885364532471 1.0257433652877808
C 8.362605094909668 6.061617851257324 -1.3691822290420532
C 8.28924560546875 7.230489253997803 -3.3154678344726562
H 4.972058296203613 -1.0585490465164185 5.963389873504639
H 3.615896463394165 -0.7028836607933044 2.9154505729675293
H 2.7856640815734863 1.4124380350112915 5.4368367195129395
H 5.1772260665893555 2.370000123977661 0.2294316440820694
H 4.599612236022949 6.626740455627441 4.148421287536621
H 2.145160436630249 4.766512870788574 2.9003894329071045
H 3.7257461547851562 6.919931411743164 0.9126432538032532
H 9.86040210723877 3.123509407043457 0.8521153330802917
H 9.182557106018066 5.875574111938477 2.5423052310943604
H 8.231703758239746 8.276187896728516 -5.034249305725098
