14
Generated by QM7 dataset
C 2.0639588832855225 -0.08242985606193542 1.031166911125183
C 4.762109756469727 0.0 0.0
O 4.643850803375244 -1.0336424112319946 -2.510028839111328
C 6.721623420715332 -2.1850526332855225 -3.511791467666626
C 9.016828536987305 -2.5337636470794678 -2.5123908519744873
C 5.672995567321777 2.5722384452819824 0.0
N 6.399047374725342 4.622572422027588 0.0
H 1.9670159816741943 0.6478170156478882 2.9651126861572266
H 1.3482818603515625 -2.025238513946533 1.0241559743881226
H 0.7749199867248535 1.0306565761566162 -0.1492694616317749
H 5.905450820922852 -1.2070626020431519 1.2350115776062012
H 6.269204139709473 -2.8561508655548096 -5.401536464691162
H 9.566889762878418 -1.8882333040237427 -0.6488941311836243
H 10.45621395111084 -3.507652997970581 -3.6014211177825928
