18
Generated by QM7 dataset
C 1.7654577493667603 0.0346008837223053 -0.17156822979450226
C 4.613123893737793 -0.08904389292001724 0.31660470366477966
C 5.975030422210693 2.3199222087860107 -0.6353259086608887
N 6.414599895477295 2.276874303817749 -3.3723297119140625
C 8.033490180969238 0.14220188558101654 -4.0729265213012695
C 7.270380973815918 -2.3069398403167725 -2.861649990081787
C 5.6938395500183105 -2.4409592151641846 -0.8792706727981567
H 0.93641597032547 1.6855223178863525 0.7630903124809265
H 0.8153790235519409 -1.646745204925537 0.578482985496521
H 1.3322569131851196 0.1594550907611847 -2.1918177604675293
H 4.910490989685059 -0.2115737348794937 2.364652156829834
H 4.851531505584717 3.9953157901763916 -0.16262982785701752
H 7.788203716278076 2.5343494415283203 0.3497694134712219
H 7.276730537414551 3.910353660583496 -3.9105615615844727
H 10.003435134887695 0.548568606376648 -3.572697401046753
H 7.957901477813721 -0.07487095147371292 -6.129534721374512
H 8.048910140991211 -4.027365207672119 -3.663177490234375
H 5.168854713439941 -4.262598514556885 -0.09393828362226486
