11
Generated by QM7 dataset
C 2.639021396636963 -1.0580954551696777 1.3699758052825928
C 4.324279308319092 -0.051135990768671036 -0.23583781719207764
C 5.773189067840576 2.4253690242767334 0.0
C 5.0878987312316895 3.911903142929077 2.1832950115203857
N 4.541635513305664 5.096799373626709 3.923581600189209
C 8.456259727478027 1.928087592124939 0.0
N 10.594938278198242 1.5317175388336182 0.0
H 1.7443116903305054 -2.8572847843170166 0.9454488754272461
H 2.096386671066284 -0.16565339267253876 3.139099597930908
H 4.725562572479248 -1.1139557361602783 -1.9584176540374756
H 5.311018466949463 3.5289690494537354 -1.6950843334197998
