15
Generated by QM7 dataset
C 1.6618629693984985 0.06740652769804001 0.3558921217918396
C 4.184439659118652 -0.034865446388721466 0.05582251027226448
C 5.740383148193359 2.335890531539917 -0.2706654667854309
O 8.319160461425781 2.196277618408203 0.5455450415611267
C 9.495741844177246 -0.07664728909730911 0.24413372576236725
C 8.326813697814941 -2.2827892303466797 -0.07944408804178238
C 5.522970199584961 -2.531174659729004 -0.0851510614156723
H 0.6547523140907288 1.8569960594177246 0.3862978219985962
H 0.5340933203697205 -1.6405467987060547 0.5167078375816345
H 4.884904384613037 3.8912863731384277 0.7982392311096191
H 5.739570617675781 2.8905062675476074 -2.2634005546569824
H 11.532185554504395 0.12432508170604706 0.38000503182411194
H 9.436044692993164 -3.999662160873413 -0.2488391399383545
H 4.954843044281006 -3.525491952896118 -1.8091671466827393
H 4.975573539733887 -3.711251974105835 1.5275601148605347
