20
Generated by QM7 dataset
N 2.151585578918457 3.785404920578003 0.6442643404006958
C 4.764301776885986 3.6842668056488037 -0.22321444749832153
C 6.392093181610107 2.2260406017303467 1.662259817123413
C 9.11286449432373 2.085010528564453 0.7329680919647217
C 10.716202735900879 4.541011810302734 0.8645874857902527
C 12.97918701171875 2.8616690635681152 1.6011271476745605
C 11.043956756591797 0.9311058521270752 2.6142094135284424
H 1.1118770837783813 4.845635890960693 -0.5839064717292786
H 2.0663020610809326 4.688977241516113 2.3424856662750244
H 5.484476566314697 5.610502243041992 -0.46179237961769104
H 4.829554080963135 2.7687132358551025 -2.078868865966797
H 5.647748947143555 0.3044348657131195 1.8907465934753418
H 6.310646057128906 3.134054183959961 3.5244336128234863
H 9.230008125305176 1.1723294258117676 -1.1313223838806152
H 10.14444637298584 5.861476898193359 2.355562448501587
H 10.914453506469727 5.577867031097412 -0.9108858108520508
H 14.071335792541504 2.1748857498168945 -0.019501972943544388
H 14.273309707641602 3.657092571258545 2.9998269081115723
H 11.519487380981445 -1.0551097393035889 2.306013822555542
H 10.572450637817383 1.206892490386963 4.6129913330078125
