13
Generated by QM7 dataset
C 3.2746875286102295 -1.356766700744629 -0.43374884128570557
O 5.929507255554199 -0.964629590511322 -0.24815884232521057
N 6.3997087478637695 1.6446853876113892 -0.3329319357872009
C 8.80251407623291 2.0904717445373535 -0.18158377707004547
C 10.890793800354004 0.2016715705394745 0.060168880969285965
C 9.40204906463623 4.751168251037598 -0.2419794350862503
N 9.962371826171875 6.87520170211792 -0.28379908204078674
H 2.9087986946105957 -3.388827085494995 -0.3716902434825897
H 2.563791513442993 -0.6045612096786499 -2.224642276763916
H 2.3054847717285156 -0.4545736312866211 1.1551328897476196
H 10.791035652160645 -1.1477062702178955 -1.4999700784683228
H 10.68999195098877 -0.8154923915863037 1.8467915058135986
H 12.736111640930176 1.129734992980957 0.021618466824293137
