17
Generated by QM7 dataset
C 1.9562634229660034 0.13383039832115173 0.06279560178518295
C 4.834656238555908 -0.032919030636548996 0.118126779794693
C 5.747809886932373 -1.6484458446502686 2.323418378829956
O 5.688755989074707 -1.2076294422149658 -2.1582751274108887
C 5.973613262176514 2.611015796661377 0.266262412071228
N 5.782996654510498 3.9854135513305664 2.28715443611145
N 6.8796234130859375 6.283604145050049 2.0472726821899414
H 1.314833641052246 1.3106573820114136 -1.5180736780166626
H 1.1990312337875366 0.952705442905426 1.8067671060562134
H 1.112349510192871 -1.7380566596984863 -0.20947614312171936
H 5.099217891693115 -0.9112826585769653 4.145227432250977
H 7.817986011505127 -1.7267183065414429 2.3689606189727783
H 5.084591388702393 -3.6015913486480713 2.1333117485046387
H 4.798222541809082 -0.4361110031604767 -3.5695226192474365
H 6.912618160247803 3.3212881088256836 -1.4642164707183838
H 6.506629467010498 7.335123062133789 3.6270647048950195
H 8.807806015014648 6.13129186630249 1.996798038482666
