18
Generated by QM7 dataset
C 1.8783310651779175 -0.05829805135726929 0.021486185491085052
C 4.762109756469727 0.0 0.0
C 5.781144618988037 -1.442163348197937 -2.2843387126922607
C 5.672995567321777 2.5722384452819824 0.0
C 6.423746109008789 4.692322254180908 0.0
C 7.33463191986084 7.264560699462891 0.0
N 5.22599983215332 9.016261100769043 -0.2277120053768158
H 1.1261067390441895 0.9250965118408203 1.6843129396438599
H 1.178584337234497 -2.0074939727783203 0.07150723785161972
H 1.083701252937317 0.861771821975708 -1.6581969261169434
H 5.433642864227295 -0.9570518136024475 1.7119406461715698
H 5.1602373123168945 -0.5831883549690247 -4.064064025878906
H 5.133100986480713 -3.4075729846954346 -2.2626256942749023
H 7.851868629455566 -1.458074927330017 -2.2871923446655273
H 8.64734935760498 7.565575122833252 -1.5713828802108765
H 8.363171577453613 7.669567108154297 1.7485636472702026
H 4.272992134094238 8.627412796020508 -1.854274868965149
H 5.9110822677612305 10.802714347839355 -0.40950363874435425
