16
Generated by QM7 dataset
N 3.824767827987671 -0.7481803894042969 -2.389709949493408
C 4.7067975997924805 0.4088800549507141 -0.02267671376466751
C 6.340182304382324 2.807036876678467 -0.3642446994781494
O 4.843368053436279 4.879650592803955 -1.27732253074646
C 5.644838809967041 6.985429286956787 0.19787321984767914
C 6.291125297546387 5.807430744171143 2.700343132019043
O 7.4775519371032715 3.4839558601379395 2.0144102573394775
H 2.8909409046173096 -2.3825666904449463 -1.9870659112930298
H 5.336359977722168 -1.2251662015914917 -3.481933832168579
H 5.787286281585693 -1.001611590385437 1.041560411453247
H 3.045104742050171 0.8777778148651123 1.1211556196212769
H 7.873997688293457 2.4512581825256348 -1.7100698947906494
H 7.310726642608643 7.813601970672607 -0.7108393907546997
H 4.151690483093262 8.40671157836914 0.3197038769721985
H 7.557733058929443 6.963546276092529 3.8491454124450684
H 4.591203212738037 5.3592634201049805 3.7917165756225586
