16
Generated by QM7 dataset
C 1.9047495126724243 0.13269656896591187 0.013417055830359459
C 4.768081188201904 0.016648488119244576 0.0189728494733572
N 5.928997039794922 1.8850395679473877 1.7723174095153809
C 7.885316848754883 -0.024604234844446182 2.390446901321411
C 6.0068535804748535 -2.106099843978882 1.6056814193725586
C 7.035676956176758 -4.435205936431885 0.20108576118946075
O 8.552617073059082 -4.452856063842773 -1.5617830753326416
H 1.1238957643508911 -1.4454892873764038 -1.0733833312988281
H 1.241927981376648 1.8869293928146362 -0.8618851900100708
H 1.1171493530273438 0.03169070556759834 1.9253286123275757
H 5.526787757873535 0.16572898626327515 -1.9083399772644043
H 4.816326141357422 2.3583405017852783 3.274801015853882
H 9.580023765563965 0.12515656650066376 1.207856297492981
H 8.466218948364258 -0.0480557344853878 4.37426233291626
H 4.819916725158691 -2.6993982791900635 3.208339214324951
H 6.296359539031982 -6.25159215927124 0.9080134034156799
