20
Generated by QM7 dataset
C 5.604681968688965 -1.957453966140747 -1.2801004648208618
C 4.532942771911621 0.29812318086624146 0.1417294591665268
C 6.354279518127441 2.4670753479003906 0.1780499964952469
C 6.565002918243408 4.369935035705566 -1.950783133506775
C 4.989066123962402 4.244986534118652 -4.28344202041626
C 5.3793134689331055 5.122877597808838 0.5252871513366699
N 6.73069429397583 6.855624198913574 2.193159341812134
H 4.265244007110596 -3.532219409942627 -1.2454240322113037
H 7.376848220825195 -2.5965592861175537 -0.42628443241119385
H 5.990658760070801 -1.4795799255371094 -3.2545242309570312
H 4.138462543487549 -0.26361680030822754 2.096745729446411
H 2.7168214321136475 0.8382825255393982 -0.6936995387077332
H 8.091958045959473 1.9539012908935547 1.1383899450302124
H 8.441047668457031 5.072327136993408 -2.3826422691345215
H 3.0147745609283447 3.7683217525482178 -3.8923444747924805
H 5.753290176391602 2.8326804637908936 -5.584972381591797
H 5.012044906616211 6.07603645324707 -5.2438578605651855
H 3.338163375854492 5.383791923522949 0.5374380946159363
H 8.635103225708008 6.592498779296875 2.0874671936035156
H 6.253462791442871 6.533482551574707 4.031522750854492
