19
Generated by QM7 dataset
C 1.737962245941162 -0.5486819744110107 0.6573790311813354
C 4.573042869567871 -0.40436360239982605 0.06971199810504913
C 5.334111213684082 -2.664721727371216 -1.5631625652313232
C 5.239984035491943 2.1418344974517822 -1.1741435527801514
O 4.534379005432129 4.1546196937561035 0.4986042380332947
C 8.057319641113281 2.4503889083862305 -1.7917249202728271
O 8.462628364562988 4.934547424316406 -2.7861366271972656
H 1.1629563570022583 0.9497196674346924 1.9630097150802612
H 1.262412667274475 -2.357168674468994 1.5449267625808716
H 0.6079059839248657 -0.36713600158691406 -1.0675441026687622
H 5.572122097015381 -0.5391577482223511 1.883641242980957
H 4.497926235198975 -2.538809299468994 -3.451679229736328
H 4.705323696136475 -4.439401149749756 -0.7032237648963928
H 7.387563228607178 -2.7860987186431885 -1.769501805305481
H 4.133095741271973 2.410856008529663 -2.9048869609832764
H 5.545212268829346 5.616039276123047 -0.011943069286644459
H 8.72386360168457 1.076898217201233 -3.1838483810424805
H 9.20602798461914 2.2918975353240967 -0.07885827124118805
H 7.697024822235107 4.98349142074585 -4.458808898925781
