16
Generated by QM7 dataset
C 4.456975936889648 -0.9452977180480957 -2.7636678218841553
C 4.652486801147461 0.03779452294111252 -0.07154503464698792
C 6.109957218170166 2.5137135982513428 -0.005196746904402971
C 4.754834175109863 4.89594030380249 -0.952988862991333
O 5.339232444763184 6.232127666473389 1.363399624824524
C 6.143575191497803 3.8980326652526855 2.5428154468536377
H 3.438772439956665 -2.7440903186798096 -2.7997994422912598
H 6.333643913269043 -1.2465956211090088 -3.5796704292297363
H 3.4472196102142334 0.392987459897995 -3.9743776321411133
H 5.622200012207031 -1.3730372190475464 1.0961923599243164
H 2.750005006790161 0.27697715163230896 0.7146755456924438
H 8.017257690429688 2.3159916400909424 -0.7973888516426086
H 2.710150718688965 4.746009349822998 -1.225260615348816
H 5.615793704986572 5.800117492675781 -2.5994505882263184
H 8.00599479675293 4.081827163696289 3.4181933403015137
H 4.767873287200928 3.2674877643585205 3.9522299766540527
