13
Generated by QM7 dataset
C 1.885115146636963 0.05714531987905502 0.2311512976884842
C 4.722066402435303 -0.05449970066547394 -0.12113144248723984
N 6.0946125984191895 1.8501930236816406 1.407921552658081
C 7.890400409698486 -0.011206075549125671 2.459195137023926
C 6.1374711990356445 -2.0699303150177 1.4130994081497192
O 5.95479154586792 -4.336864948272705 1.6865427494049072
H 0.9795017242431641 -1.5533926486968994 -0.7015230059623718
H 1.107776403427124 1.7823518514633179 -0.6077548265457153
H 1.3427637815475464 0.012887932360172272 2.2290642261505127
H 5.2812933921813965 -0.05104150250554085 -2.115680694580078
H 5.009059429168701 2.6941447257995605 2.7634787559509277
H 9.758413314819336 0.01526898704469204 1.5777701139450073
H 8.061590194702148 0.014702069573104382 4.51517915725708
