14
Generated by QM7 dataset
C 3.4272072315216064 -0.765282392501831 -1.7907800674438477
O 5.957607269287109 0.10425619035959244 -1.5333805084228516
C 6.304220676422119 2.544743061065674 -0.6647489666938782
C 4.48192024230957 4.195796966552734 -0.02689080312848091
C 8.995908737182617 3.442230701446533 -0.408407598733902
N 10.74260139465332 1.6748453378677368 -1.0811690092086792
O 9.61178970336914 5.5466108322143555 0.32843440771102905
H 3.4926486015319824 -2.7085633277893066 -2.4936447143554688
H 2.3876311779022217 0.37390121817588806 -3.1702234745025635
H 2.4594786167144775 -0.7838962078094482 0.03785121440887451
H 2.4870119094848633 3.763824224472046 -0.13275326788425446
H 4.95932149887085 6.080817222595215 0.6390675902366638
H 10.196829795837402 -0.05402727052569389 -1.6852388381958008
H 12.593664169311523 2.1185531616210938 -0.966783881187439
