17
Generated by QM7 dataset
C -1.8176708221435547 -2.2706949710845947 0.982903242111206
C 0.16315895318984985 -3.9566330909729004 -0.25180602073669434
C -0.06459084153175354 -6.660925388336182 0.7152235507965088
O -0.2818904519081116 -3.8753559589385986 -2.9261653423309326
N 1.9591925144195557 -4.597590446472168 -4.142789840698242
C 1.5265774726867676 -5.78297758102417 -6.397214412689209
N -0.5384019017219543 -6.846798896789551 -7.11755895614624
H -1.6666439771652222 -0.3348216712474823 0.26193493604660034
H -1.5964595079421997 -2.225757122039795 3.0392465591430664
H -3.7327003479003906 -2.9211008548736572 0.5350003838539124
H 2.0408287048339844 -3.1926355361938477 0.1873096525669098
H -1.9143681526184082 -7.466383457183838 0.24188494682312012
H 0.18986079096794128 -6.745037078857422 2.7661054134368896
H 1.3570690155029297 -7.882822513580322 -0.16332903504371643
H 3.28997540473938 -3.2088305950164795 -4.198631286621094
H 3.199892044067383 -5.792294025421143 -7.637895107269287
H -1.8063892126083374 -6.582653045654297 -5.66951847076416
