9
Generated by QM7 dataset
C 1.889726161956787 0.0 0.0
C 4.138802528381348 0.0 0.0
C 6.79575777053833 0.0 0.0
C 8.037344932556152 2.150489330291748 0.0
C 10.694300651550293 2.150489330291748 0.0
N 12.869394302368164 2.150489330291748 0.0
H -0.12031885981559753 -0.005196746904402971 -0.0
H 7.7591023445129395 -1.8148174285888672 0.0
H 7.086378574371338 3.9649288654327393 0.0
