18
Generated by QM7 dataset
C 4.833220481872559 -0.8973553776741028 2.874386787414551
C 4.560665130615234 -0.14940175414085388 0.1189393624663353
C 5.004278182983398 2.6611690521240234 -0.19672049582004547
C 2.8099849224090576 4.422412872314453 0.2793959975242615
N 7.28328800201416 3.4101619720458984 -0.7248422503471375
O 7.420973300933838 6.053964614868164 -0.8410604000091553
C 9.959650039672852 6.742920875549316 -1.3942776918411255
H 4.5342278480529785 -2.929718017578125 3.1031382083892822
H 3.4601075649261475 0.09913503378629684 4.057676792144775
H 6.722568511962891 -0.43652674555778503 3.5824673175811768
H 2.6717894077301025 -0.6267277002334595 -0.577065646648407
H 5.933475494384766 -1.1865779161453247 -1.0329620838165283
H 1.0293148756027222 3.3757123947143555 0.27716612815856934
H 2.7133631706237793 5.865445137023926 -1.1960265636444092
H 3.0513975620269775 5.327213764190674 2.120253801345825
H 10.077607154846191 8.80359172821045 -1.4609094858169556
H 10.522958755493164 5.9818902015686035 -3.232811212539673
H 11.22948932647705 6.049901485443115 0.08433847874403
