14
Generated by QM7 dataset
N 1.920377492904663 -0.037586651742458344 0.0952799916267395
C 4.667623519897461 0.0 0.0
C 5.578509330749512 2.5722384452819824 0.0
C 6.329259872436523 4.692322254180908 0.0
C 7.310348987579346 7.208719253540039 0.07904724776744843
C 7.251937389373779 8.82150650024414 -2.2603580951690674
O 5.4224934577941895 9.118571281433105 -0.2865391671657562
H 1.303287386894226 -1.8440325260162354 -0.12920057773590088
H 1.2290589809417725 0.9674453139305115 -1.3943911790847778
H 5.306672096252441 -0.9890070557594299 -1.7020007371902466
H 5.413517475128174 -1.0338881015777588 1.629132866859436
H 8.768877029418945 7.591615676879883 1.4646888971328735
H 6.6134934425354 8.000722885131836 -4.021299362182617
H 8.67231273651123 10.279467582702637 -2.459629774093628
