14
Generated by QM7 dataset
C 6.6490960121154785 -2.116417646408081 -0.5414254069328308
O 4.846146106719971 -0.16814783215522766 -0.11001985520124435
C 5.7441816329956055 2.2493977546691895 0.07808348536491394
C 8.129753112792969 3.089494466781616 -0.09010214358568192
C 8.767195701599121 5.733693599700928 0.15234972536563873
C 11.134681701660156 6.603118896484375 -0.018746083602309227
H 5.631308078765869 -3.9123945236206055 -0.6520122289657593
H 7.993409156799316 -2.23940110206604 1.026423692703247
H 7.633756637573242 -1.8294249773025513 -2.3383660316467285
H 4.153504848480225 3.503060817718506 0.4058375954627991
H 9.684128761291504 1.792008399963379 -0.4198593497276306
H 7.235723495483398 7.064835548400879 0.4891178011894226
H 12.735809326171875 5.365234851837158 -0.3534354865550995
H 11.522321701049805 8.608647346496582 0.17576342821121216
