19
Generated by QM7 dataset
C 2.255614995956421 2.1275670528411865 2.813953399658203
C 5.06558084487915 1.592812418937683 2.7376651763916016
O 6.170976161956787 3.076549768447876 0.7833482027053833
C 8.86510181427002 2.80558180809021 0.4696347415447235
C 10.066911697387695 4.521906852722168 -1.5730646848678589
C 12.348963737487793 4.837245464324951 0.2048652172088623
C 10.55672836303711 4.2049431800842285 2.407095432281494
H 1.3315387964248657 1.0107011795043945 4.286522388458252
H 1.3798024654388428 1.6864105463027954 0.9920873045921326
H 1.9060344696044922 4.13377571105957 3.1793320178985596
H 5.400516033172607 -0.4124138355255127 2.3477580547332764
H 5.933475494384766 2.0805130004882812 4.552557945251465
H 9.394017219543457 0.8142452239990234 0.21763975918293
H 9.02283763885498 6.276460647583008 -1.9241946935653687
H 10.475715637207031 3.6097359657287598 -3.3803231716156006
H 13.835062980651855 3.4252231121063232 -0.09082023799419403
H 13.201967239379883 6.717050552368164 0.24940605461597443
H 11.369820594787598 3.0282483100891113 3.897125482559204
H 9.661300659179688 5.862024784088135 3.268867254257202
