14
Generated by QM7 dataset
C 1.922985315322876 -0.05336586758494377 -0.04452194646000862
N 4.6738972663879395 0.01755555532872677 -0.0809180736541748
C 5.594912052154541 2.618555784225464 0.0
C 8.323677062988281 2.618555784225464 0.0
C 10.572752952575684 2.618555784225464 0.0
C 13.294657707214355 2.600754499435425 0.011489534750580788
O 14.497979164123535 4.359692573547363 -0.8826344013214111
H 1.2846357822418213 -2.019531488418579 -0.10438846796751022
H 1.115127444267273 0.9274209141731262 -1.6773775815963745
H 1.174993872642517 0.7898110151290894 1.69039785861969
H 5.305973052978516 -0.8115617632865906 -1.7007346153259277
H 4.903990268707275 3.562549591064453 1.7096163034439087
H 4.889741897583008 3.6819992065429688 -1.6321375370025635
H 14.183981895446777 0.9232068061828613 0.8634914755821228
