17
Generated by QM7 dataset
N 2.9090065956115723 -0.6127436757087708 -0.9261170029640198
C 5.3630805015563965 0.03422294184565544 0.19944170117378235
C 6.9341044425964355 -2.0779428482055664 1.2883963584899902
C 7.706964492797852 -0.7820064425468445 -1.1227240562438965
C 9.507817268371582 1.3902148008346558 -1.1405631303787231
N 7.89627742767334 3.581749200820923 -0.5920323133468628
C 5.827707290649414 2.7297849655151367 1.0544482469558716
H 2.5513758659362793 0.5736830830574036 -2.404771089553833
H 1.4875357151031494 -0.33015406131744385 0.3407365083694458
H 6.214950084686279 -3.9911961555480957 1.147687315940857
H 8.016974449157715 -1.7206145524978638 2.9877138137817383
H 7.565046310424805 -1.773904800415039 -2.9010698795318604
H 10.962944030761719 1.159592628479004 0.3138457238674164
H 10.425846099853516 1.616396188735962 -2.97817063331604
H 8.915047645568848 4.96538782119751 0.2671883702278137
H 6.395456790924072 2.7830185890197754 3.0446321964263916
H 4.170398712158203 3.9391720294952393 0.8003368377685547
