20
Generated by QM7 dataset
C 6.2948479652404785 -2.363083600997925 0.12372037023305893
C 4.8733391761779785 -0.18585456907749176 1.3630783557891846
C 5.837061882019043 2.4299421310424805 0.5338287353515625
N 4.270856857299805 4.406652450561523 1.6636770963668823
C 8.532510757446289 2.8894667625427246 1.304534673690796
C 10.427452087402344 3.329017162322998 -0.32856667041778564
C 13.102681159973145 3.783949851989746 0.4458619952201843
H 5.43778133392334 -4.166146755218506 0.664314329624176
H 8.275431632995605 -2.408607244491577 0.7128614187240601
H 6.2263264656066895 -2.214078664779663 -1.937214970588684
H 5.000555515289307 -0.39077645540237427 3.424750566482544
H 2.864919424057007 -0.36469826102256775 0.872089684009552
H 5.653550148010254 2.5832366943359375 -1.525386929512024
H 4.210517883300781 4.165769100189209 3.5714311599731445
H 2.45881724357605 4.202392101287842 1.0504798889160156
H 8.934530258178711 2.8533918857574463 3.3188881874084473
H 10.041438102722168 3.3868050575256348 -2.3459060192108154
H 13.35263442993164 3.6852304935455322 2.4969897270202637
H 13.711947441101074 5.654627323150635 -0.18999306857585907
H 14.33563232421875 2.368110418319702 -0.4217112958431244
