14
Generated by QM7 dataset
C 3.8541343212127686 -1.6214605569839478 -1.4589252471923828
C 3.7132740020751953 0.9058780074119568 -1.5000078678131104
C 5.149654865264893 2.625774383544922 0.11748427152633667
C 7.788468360900879 3.3016161918640137 -0.5677871108055115
N 5.756729602813721 5.062670707702637 -0.9083346724510193
C 5.593003749847412 7.193431377410889 0.6066020727157593
O 6.139984607696533 7.358083248138428 2.847288131713867
H 2.7076563835144043 -2.759491443634033 -2.7228686809539795
H 5.1083455085754395 -2.601661443710327 -0.1651998609304428
H 2.406585216522217 1.7726954221725464 -2.832812786102295
H 4.629186630249023 2.6233556270599365 2.102773904800415
H 8.59366226196289 2.6438403129577637 -2.3262717723846436
H 9.111201286315918 3.752107858657837 0.9264760613441467
H 4.878876209259033 8.811264038085938 -0.4933130145072937
