17
Generated by QM7 dataset
C 5.5946855545043945 0.9552943706512451 -3.68666672706604
C 5.166359901428223 -0.3189857602119446 -1.1461378335952759
C 6.362821102142334 1.1151840686798096 1.0592670440673828
C 9.196578979492188 1.1186423301696777 0.9458835124969482
C 10.624512672424316 3.450791120529175 0.14191843569278717
N 10.573678970336914 2.657881021499634 2.7822060585021973
H 4.601653099060059 -0.08362038433551788 -5.177169322967529
H 7.601971626281738 0.998852550983429 -4.181529521942139
H 4.881011486053467 2.8963265419006348 -3.675328254699707
H 5.9053754806518555 -2.2529125213623047 -1.2207252979278564
H 3.126495122909546 -0.46279391646385193 -0.8137160539627075
H 5.78515100479126 0.19263868033885956 2.8236477375030518
H 5.614243984222412 3.047788143157959 1.1252562999725342
H 9.993873596191406 -0.7276012301445007 0.5621935129165649
H 9.578795433044434 5.155739784240723 -0.29118791222572327
H 12.39505386352539 3.224137306213379 -0.853362500667572
H 12.23493766784668 1.8050097227096558 3.2808101177215576
