16
Generated by QM7 dataset
C 1.4311840534210205 -2.456984043121338 1.552504539489746
C 3.115232467651367 -0.3516213297843933 0.5001727342605591
N 1.0093783140182495 0.5949046611785889 -1.0599285364151
C -0.43628108501434326 2.6267004013061523 0.20598015189170837
C -2.971273183822632 1.517317771911621 0.7412261962890625
C -2.976696491241455 -0.9596785306930542 0.2791881263256073
C -0.44750604033470154 -1.7667049169540405 -0.562798261642456
H 2.2294044494628906 -4.36067533493042 1.4468309879302979
H 0.777282178401947 -2.1147170066833496 3.488717794418335
H 4.6886749267578125 -1.0681110620498657 -0.6441320776939392
H 3.9082748889923096 0.9525353312492371 1.8971905708312988
H 0.4359787106513977 3.3139939308166504 1.954430341720581
H -0.6228159666061401 4.2257490158081055 -1.0936223268508911
H -4.5687150955200195 2.5999040603637695 1.4038774967193604
H -4.573458671569824 -2.214059829711914 0.4949381649494171
H -0.46757492423057556 -3.0793464183807373 -2.1631128787994385
