15
Generated by QM7 dataset
C 1.7782323360443115 0.3693658709526062 0.08961081504821777
C 4.482827186584473 -0.4716756343841553 0.23825667798519135
C 5.128489971160889 -2.896799087524414 0.6099280118942261
C 6.415544509887695 1.5868974924087524 -0.04705417901277542
O 5.7362260818481445 3.8071744441986084 -0.26853007078170776
C 9.226134300231934 0.9298586249351501 -0.04901949688792229
O 10.752163887023926 3.1081271171569824 -0.44582417607307434
H 1.365289330482483 1.7573697566986084 1.567395567893982
H 0.46339863538742065 -1.2102372646331787 0.3338012099266052
H 1.3884196281433105 1.226961374282837 -1.7530044317245483
H 3.684361219406128 -4.344537258148193 0.8140940070152283
H 7.066460609436035 -3.552666187286377 0.7337239384651184
H 9.627342224121094 -0.4049305021762848 -1.5732159614562988
H 9.7450532913208 0.1188826709985733 1.7785156965255737
H 9.601755142211914 4.557263374328613 -0.37397679686546326
