15
Generated by QM7 dataset
C 4.301092147827148 -2.117494821548462 -2.1635475158691406
N 6.361120700836182 -1.1716868877410889 -0.6248379349708557
C 6.760891914367676 1.30837082862854 -0.010280109941959381
S 4.993544578552246 3.749915838241577 -0.9622863531112671
N 8.80858039855957 1.823642373085022 1.4901247024536133
C 10.710211753845215 0.2631821632385254 2.2986629009246826
C 12.573822021484375 1.112273931503296 3.772913932800293
H 4.688410758972168 -4.094961166381836 -2.6152865886688232
H 4.145907878875732 -1.0293526649475098 -3.9117519855499268
H 2.542229652404785 -1.9834187030792236 -1.0880286693572998
H 7.140746116638184 -2.4492173194885254 0.5545401573181152
H 8.946247100830078 3.683321952819824 1.9490067958831787
H 10.701216697692871 -1.6923253536224365 1.683254599571228
H 12.66675853729248 3.0567831993103027 4.416044235229492
H 14.075417518615723 -0.14819231629371643 4.376964569091797
