14
Generated by QM7 dataset
C 1.9601751565933228 -0.061945222318172455 -0.08331802487373352
C 4.777057647705078 -0.06096256524324417 -0.04117713123559952
C 6.238533973693848 -1.251603364944458 -2.1706528663635254
C 6.237986087799072 1.5869730710983276 -1.860718846321106
C 8.574311256408691 2.8852715492248535 -1.034757375717163
O 10.139514923095703 3.6033108234405518 -2.578569173812866
H 1.2324415445327759 1.4809783697128296 1.0859311819076538
H 1.2382619380950928 -1.844051480293274 0.6785250902175903
H 1.2088199853897095 0.1712280809879303 -1.997175931930542
H 5.501691818237305 -0.3164535462856293 1.858847975730896
H 5.213395118713379 -2.030416250228882 -3.7652416229248047
H 7.952043056488037 -2.279557704925537 -1.712791085243225
H 5.169175624847412 2.650114059448242 -3.2528233528137207
H 8.815553665161133 3.1873443126678467 1.0119673013687134
