15
Generated by QM7 dataset
O 1.7543461322784424 0.09151943773031235 -0.8754723072052002
C 4.349072456359863 -0.029895467683672905 -0.049624208360910416
C 6.054266929626465 -1.628584861755371 -1.6718028783798218
O 4.8441996574401855 -2.807528257369995 -3.806588649749756
C 6.25144100189209 1.2131285667419434 -1.7677065134048462
C 8.44796371459961 2.4665839672088623 -0.632699191570282
C 10.830965042114258 2.305239200592041 -1.4704715013504028
H 0.9517228007316589 1.6282447576522827 -0.2587980031967163
H 4.704133033752441 -0.06511995941400528 1.9699639081954956
H 7.5449395179748535 -2.680406332015991 -0.7378813624382019
H 3.0338985919952393 -2.4463448524475098 -3.7416765689849854
H 5.539562225341797 2.135655164718628 -3.456120014190674
H 8.08415412902832 3.6547491550445557 1.0070350170135498
H 11.304662704467773 1.1662633419036865 -3.1104514598846436
H 12.352666854858398 3.310441255569458 -0.5336397886276245
