21
Generated by QM7 dataset
C 1.58693528175354 -0.22578448057174683 -0.016478411853313446
C 4.467482566833496 -0.04329362511634827 0.06850257515907288
N 5.540903568267822 -1.6725021600723267 -1.925838828086853
C 5.552431106567383 2.7213189601898193 -0.1054467186331749
C 4.546548843383789 4.186858177185059 -2.4039394855499268
C 4.968940258026123 4.212671756744385 2.3172388076782227
N 8.336942672729492 2.556894063949585 -0.4014534056186676
H 0.7175667881965637 0.8955222964286804 1.4872711896896362
H 0.9751364588737488 -2.186828851699829 0.2531099319458008
H 0.8189128041267395 0.4160231947898865 -1.8275730609893799
H 5.090071678161621 -0.8583891987800598 1.8723406791687012
H 7.407631874084473 -1.15528404712677 -2.064110040664673
H 4.803967475891113 -1.1486133337020874 -3.6266300678253174
H 4.92904806137085 3.19728422164917 -4.181491374969482
H 5.42185115814209 6.060975551605225 -2.540283203125
H 2.503528118133545 4.489252090454102 -2.2718665599823
H 5.674847602844238 3.2289371490478516 3.997451066970825
H 2.9341399669647217 4.497888565063477 2.5593128204345703
H 5.846340179443359 6.089415550231934 2.277611255645752
H 9.078017234802246 1.6432301998138428 1.1278263330459595
H 9.094703674316406 4.329135894775391 -0.3768302798271179
