19
Generated by QM7 dataset
C 2.184561252593994 -0.5821112394332886 0.7492952942848206
C 4.750922679901123 -0.1863836944103241 -0.5324114561080933
C 5.325947284698486 -2.4159014225006104 -2.283979654312134
C 4.922150611877441 2.4156558513641357 -1.8541237115859985
C 7.602443695068359 3.019083261489868 -2.748739004135132
C 3.0507171154022217 2.657559633255005 -4.021507263183594
O 3.636645555496216 2.9549081325531006 -6.244713306427002
H 1.727323055267334 1.0049185752868652 1.9968546628952026
H 2.2093732357025146 -2.2998533248901367 1.9060155153274536
H 0.656075119972229 -0.7851056456565857 -0.6303181648254395
H 6.175209045410156 -0.20777538418769836 0.9776687026023865
H 3.990100145339966 -2.515660047531128 -3.8612773418426514
H 5.2056474685668945 -4.204678535461426 -1.246482253074646
H 7.237840175628662 -2.292011022567749 -3.062527894973755
H 4.392403602600098 3.8833682537078857 -0.4851682782173157
H 8.213505744934082 1.7663648128509521 -4.278321266174316
H 8.957415580749512 2.8560943603515625 -1.193078637123108
H 7.705282688140869 4.956695079803467 -3.4752063751220703
H 1.0372518301010132 2.5852210521698 -3.4770772457122803
