13
Generated by QM7 dataset
N 2.3138184547424316 -0.3121260702610016 -1.2920624017715454
C 4.350943088531494 0.2531099319458008 -0.0665939524769783
N 5.449611186981201 2.574279308319092 0.18196173012256622
O 7.677976131439209 2.6790835857391357 1.6274888515472412
C 8.37913990020752 5.339345455169678 1.5450401306152344
C 6.412615776062012 6.630085468292236 -0.013511542230844498
C 4.764642238616943 4.876041412353516 -0.7396765947341919
H 1.9790345430374146 -2.2131149768829346 -1.1236878633499146
H 5.403671741485596 -1.2461421489715576 0.9330145120620728
H 10.254655838012695 5.496363162994385 0.6908460855484009
H 8.419013023376465 6.066606521606445 3.479288101196289
H 6.350746154785156 8.614845275878906 -0.46012941002845764
H 3.084108591079712 5.061234474182129 -1.8838491439819336
