18
Generated by QM7 dataset
C 2.2258894443511963 0.4505296051502228 0.18666714429855347
C 5.045379638671875 -0.20443058013916016 -0.026097116991877556
C 5.812930107116699 -1.9408999681472778 2.1681394577026367
N 5.459758758544922 -1.5994641780853271 -2.393394947052002
C 6.581103324890137 2.2062363624572754 -0.18940724432468414
C 7.064570903778076 3.8756582736968994 2.0771491527557373
O 8.971549987792969 2.2237353324890137 1.0887279510498047
H 1.6076467037200928 1.6560425758361816 -1.3811252117156982
H 1.8364359140396118 1.4834728240966797 1.9390857219696045
H 1.045150876045227 -1.2513766288757324 0.1838325560092926
H 5.536954402923584 -1.0156333446502686 3.998962879180908
H 7.805967330932617 -2.4932668209075928 2.0461387634277344
H 4.6856513023376465 -3.679826021194458 2.1861674785614014
H 4.707326889038086 -0.6316031813621521 -3.8763952255249023
H 4.531733512878418 -3.285080909729004 -2.3278968334198
H 6.463468074798584 3.1328258514404297 -2.011500120162964
H 6.238345146179199 3.396008014678955 3.8840296268463135
H 7.310669898986816 5.882660865783691 1.7643427848815918
