17
Generated by QM7 dataset
C 1.8459789752960205 0.014078459702432156 -0.050644662231206894
C 4.7124857902526855 0.06334362179040909 0.02073029614984989
O 5.607327461242676 0.35309532284736633 -2.5165672302246094
C 5.799361705780029 2.156555414199829 1.642134189605713
C 8.441123008728027 1.1903574466705322 2.201190710067749
O 8.37989616394043 -1.5179413557052612 2.01078200340271
C 5.879826068878174 -2.2714695930480957 1.2375627756118774
H 1.031733751296997 -0.19025762379169464 1.8392704725265503
H 1.1716113090515137 -1.5535060167312622 -1.2244102954864502
H 1.1046016216278076 1.7518894672393799 -0.896977424621582
H 7.377471923828125 -0.1584346443414688 -2.545215368270874
H 4.746047019958496 2.3364574909210205 3.4178342819213867
H 5.849987506866455 4.00501012802124 0.7172833681106567
H 9.807281494140625 1.8853230476379395 0.8112972378730774
H 9.093607902526855 1.7369606494903564 4.084718704223633
H 6.05326509475708 -3.8662474155426025 -0.065724678337574
H 4.856256008148193 -2.8723270893096924 2.9333462715148926
