10
Generated by QM7 dataset
N 1.7978287935256958 -0.0506068654358387 -0.012113144621253014
C 3.9941062927246094 -0.058902762830257416 -0.004308575764298439
C 6.6978888511657715 0.02008778788149357 0.0051022605039179325
C 8.214280128479004 2.13608980178833 0.005518000107258558
N 10.634358406066895 1.2191190719604492 0.01628943905234337
C 10.491853713989258 -1.36081063747406 0.02184523455798626
N 8.13536548614502 -2.1452736854553223 0.015325678512454033
H 7.799712181091309 4.135117530822754 -0.0006803013966418803
H 12.244953155517578 2.249926805496216 0.01957756280899048
H 12.153565406799316 -2.5541539192199707 0.030575769022107124
