18
Generated by QM7 dataset
C 4.021942138671875 -0.0995318740606308 -3.16591477394104
C 4.298333168029785 0.25248631834983826 -0.3262801170349121
N 5.408660888671875 2.6967713832855225 0.3230108916759491
C 3.6739678382873535 4.822411060333252 0.5372680425643921
C 8.027103424072266 2.8961753845214844 0.35035523772239685
C 9.14158821105957 5.454845428466797 0.9192383885383606
O 9.429184913635254 1.0837957859039307 -0.05894055962562561
H 3.213101387023926 -1.957208275794983 -3.5823349952697754
H 5.853691101074219 0.035224493592977524 -4.118242263793945
H 2.7801461219787598 1.340118169784546 -3.980651378631592
H 5.492300033569336 -1.2617323398590088 0.4299315810203552
H 2.4550375938415527 0.09057457000017166 0.603937566280365
H 2.196617603302002 4.342212677001953 1.9027841091156006
H 2.815030574798584 5.171141147613525 -1.3106573820114136
H 4.601690769195557 6.551359176635742 1.1682853698730469
H 8.58918285369873 6.8163743019104 -0.5330350399017334
H 11.20573616027832 5.31682014465332 0.917858898639679
H 8.545851707458496 6.094196796417236 2.7913901805877686
