13
Generated by QM7 dataset
C 1.785810112953186 -0.0010393493575975299 0.11701184511184692
C 4.575291633605957 0.07179069519042969 0.06502547860145569
C 6.270375728607178 2.0481419563293457 -0.11531108617782593
N 8.721388816833496 1.187806248664856 -0.11848583072423935
C 8.537083625793457 -1.2831618785858154 0.09622485190629959
N 6.07666015625 -2.0190589427948 0.21437053382396698
O 5.239813804626465 -4.488269805908203 0.4562743604183197
H 0.9940148591995239 1.9089257717132568 0.15397489070892334
H 1.1042615175247192 -1.0088869333267212 1.7890037298202515
H 1.0573585033416748 -0.9591683149337769 -1.5659215450286865
H 5.854541778564453 4.049210548400879 -0.2512013018131256
H 10.087963104248047 -2.6074819564819336 0.17610357701778412
H 4.16465425491333 -4.586402893066406 -1.0280299186706543
