15
Generated by QM7 dataset
C 1.952483892440796 0.022317666560411453 -0.12373926490545273
C 4.767760276794434 0.007483315654098988 -0.028062433004379272
C 6.258111476898193 -1.3370757102966309 -2.0506362915039062
C 6.281373977661133 1.507094383239746 -1.9227585792541504
C 8.612861633300781 2.8709096908569336 -1.1210232973098755
H 1.2081964015960693 1.487762451171875 1.1295082569122314
H 1.2110309600830078 -1.8017783164978027 0.504859209060669
H 1.2411342859268188 0.3852773606777191 -2.0313990116119385
H 5.459022045135498 -0.12935175001621246 1.8973417282104492
H 5.241250038146973 -2.21662974357605 -3.5971503257751465
H 7.937549114227295 -2.3618364334106445 -1.475838303565979
H 5.278534412384033 2.5293984413146973 -3.3894693851470947
H 9.62210750579834 1.8691281080245972 0.3828963041305542
H 8.127995491027832 4.756818771362305 -0.42475375533103943
H 9.897062301635742 3.085677146911621 -2.7262701988220215
