15
Generated by QM7 dataset
C 5.007812023162842 -1.160556435585022 -3.092517852783203
C 5.0425262451171875 -0.532789409160614 -0.293323278427124
N 6.167291164398193 1.9362133741378784 0.12362588196992874
C 8.699165344238281 2.401671886444092 0.44559741020202637
C 9.820150375366211 4.66639518737793 0.5489276647567749
C 12.467506408691406 4.928859233856201 0.9085047245025635
N 14.627802848815918 5.158234119415283 1.1998249292373657
H 4.1149163246154785 -2.9996190071105957 -3.4056456089019775
H 6.925676345825195 -1.23455810546875 -3.866001605987549
H 3.9495654106140137 0.2623128890991211 -4.159589767456055
H 6.071085453033447 -1.9923005104064941 0.7560605406761169
H 3.104593276977539 -0.5107173919677734 0.43348428606987
H 5.058853626251221 3.4461424350738525 -0.3112379014492035
H 9.820075035095215 0.6829659342765808 0.6428092122077942
H 8.72775650024414 6.38629150390625 0.37225714325904846
