15
Generated by QM7 dataset
C 1.8589425086975098 -0.1332067996263504 0.40030068159103394
C 4.667377948760986 0.14779548346996307 -0.1324131041765213
C 6.04638671875 2.1605238914489746 1.4557316303253174
C 7.721685409545898 -0.026210501790046692 2.3076767921447754
O 6.085673809051514 -1.8562779426574707 1.1021639108657837
C 5.2425537109375 0.17090682685375214 -2.814728260040283
C 5.733108043670654 0.18090347945690155 -5.02982759475708
H 1.4906349182128906 -0.289959579706192 2.432058572769165
H 1.0864036083221436 -1.831068992614746 -0.5004183650016785
H 0.8001478314399719 1.502162218093872 -0.30169478058815
H 4.928613662719727 3.0113353729248047 2.9733328819274902
H 7.0279669761657715 3.6523680686950684 0.41541850566864014
H 9.619329452514648 -0.06391053646802902 1.487195611000061
H 7.829588890075684 -0.3160189092159271 4.350092887878418
H 6.178591728210449 0.16880923509597778 -6.9950480461120605
