15
Generated by QM7 dataset
N 2.906965732574463 5.191946983337402 2.1586153507232666
C 4.5092453956604 3.9828057289123535 0.5636297464370728
O 3.8950278759002686 2.0624470710754395 -0.5582062005996704
N 6.7928853034973145 5.165131568908691 0.40504390001296997
C 8.792574882507324 3.9900245666503906 -1.01810884475708
C 10.951586723327637 5.808035373687744 -1.1214957237243652
C 13.211736679077148 5.40985107421875 -0.05340366065502167
H 2.994044303894043 7.0979437828063965 2.1634340286254883
H 1.136367917060852 4.467010021209717 2.1362977027893066
H 7.304811954498291 6.077926158905029 1.999840497970581
H 8.118433952331543 3.5516269207000732 -2.9249749183654785
H 9.303065299987793 2.2131338119506836 -0.08592584729194641
H 10.636493682861328 7.5460734367370605 -2.173468589782715
H 13.624547004699707 3.6933753490448 0.9934290051460266
H 14.712028503417969 6.801331996917725 -0.2183956503868103
