15
Generated by QM7 dataset
C 6.137603759765625 -0.7810238003730774 2.9439475536346436
O 4.414778232574463 1.0056366920471191 1.8732287883758545
C 5.406468868255615 2.608388900756836 0.1381956785917282
N 7.735499382019043 2.563715934753418 -0.5728515982627869
N 8.221102714538574 4.369405746459961 -2.304464340209961
C 10.115949630737305 3.336236000061035 -4.0358123779296875
C 10.866813659667969 5.106795787811279 -1.9637844562530518
H 5.0936055183410645 -1.9366291761398315 4.30245304107666
H 7.659003257751465 0.19352684915065765 3.9507558345794678
H 6.898823261260986 -2.025200605392456 1.4776335954666138
H 3.939927816390991 3.9210493564605713 -0.5503827333450317
H 10.044442176818848 4.060511112213135 -5.9467034339904785
H 10.606522560119629 1.3559162616729736 -3.8700456619262695
H 11.88550853729248 4.36160135269165 -0.3518292009830475
H 11.308838844299316 7.041384220123291 -2.4567196369171143
