16
Generated by QM7 dataset
C 5.8925628662109375 1.1038835048675537 5.123992443084717
O 7.476588249206543 2.7712645530700684 3.7333996295928955
C 6.449918746948242 3.4665136337280273 1.312679409980774
C 4.321936130523682 5.3857574462890625 1.594456434249878
C 8.634669303894043 4.598705291748047 -0.22051213681697845
O 10.595297813415527 2.764631509780884 -0.4857729971408844
H 6.895516395568848 0.5517244338989258 6.843888759613037
H 5.484457492828369 -0.6010273694992065 4.028745174407959
H 4.136516094207764 2.040261745452881 5.676397323608398
H 5.779047012329102 1.7559335231781006 0.35215047001838684
H 4.9213948249816895 6.988736152648926 2.759000062942505
H 2.680746555328369 4.545528411865234 2.530796766281128
H 3.7035231590270996 6.0931572914123535 -0.2479509711265564
H 9.450576782226562 6.241349697113037 0.7377679944038391
H 8.01723861694336 5.162901878356934 -2.111145257949829
H 10.871746063232422 2.1140365600585938 1.2208386659622192
