13
Generated by QM7 dataset
C 1.778818130493164 -0.33535081148147583 -0.01940748654305935
C 4.6292619705200195 0.026021528989076614 0.04850926995277405
C 5.359074115753174 2.7462823390960693 0.01999330334365368
C 5.853370189666748 4.2632598876953125 2.0930607318878174
S 6.5938591957092285 7.215994834899902 0.9772151708602905
N 6.2365498542785645 6.3553948402404785 -2.041093111038208
N 5.585066795349121 3.9574267864227295 -2.300287961959839
H 1.30946683883667 -2.3496854305267334 -0.005045568570494652
H 0.9600186944007874 0.5051804780960083 -1.723921537399292
H 0.8746030330657959 0.5481717586517334 1.620005488395691
H 5.480167865753174 -0.9299342036247253 -1.580831527709961
H 5.396755695343018 -0.8884925246238708 1.7427810430526733
H 5.815499782562256 3.813089370727539 4.08133602142334
