14
Generated by QM7 dataset
C 1.6452144384384155 -0.4724882245063782 -0.11619926244020462
C 4.477800369262695 0.04091257229447365 -0.253053218126297
C 5.739703178405762 -1.7072163820266724 -2.1627159118652344
O 4.902138710021973 2.5926854610443115 -1.0967025756835938
C 4.832218647003174 4.399735927581787 0.7181904315948486
O 4.4479241371154785 4.087024211883545 2.970196008682251
H 0.7368042469024658 0.7724822759628296 1.2632819414138794
H 1.2662110328674316 -2.431283950805664 0.42730486392974854
H 0.7378624677658081 -0.10045783966779709 -1.9391992092132568
H 5.357222557067871 -0.266262412071228 1.5987838506698608
H 4.967069625854492 -1.4170867204666138 -4.061210632324219
H 5.49379301071167 -3.6928839683532715 -1.6413027048110962
H 7.766094207763672 -1.3020024299621582 -2.2777247428894043
H 5.182668209075928 6.2513275146484375 -0.1628565937280655
