17
Generated by QM7 dataset
C 1.7634546756744385 4.463212013244629 1.1960077285766602
C 4.173025608062744 2.9495978355407715 1.1756742000579834
O 4.2118024826049805 0.6991986632347107 1.733407974243164
N 6.278388500213623 4.299694061279297 0.5005884766578674
C 8.722049713134766 3.0956549644470215 0.21531540155410767
C 10.850448608398438 5.062708377838135 0.1333201825618744
N 10.428208351135254 6.944214344024658 -1.8622684478759766
H 2.1150760650634766 6.469666481018066 0.8557813763618469
H 0.8597875833511353 4.264148235321045 3.0446889400482178
H 0.5037254095077515 3.746381998062134 -0.276750385761261
H 6.096691131591797 6.017851829528809 -0.3312501013278961
H 8.673653602600098 1.9976483583450317 -1.5415818691253662
H 9.018888473510742 1.7755677700042725 1.7820873260498047
H 12.667495727539062 4.120094299316406 -0.16635258495807648
H 10.941080093383789 6.054531574249268 1.948704481124878
H 10.476320266723633 6.063129425048828 -3.577251672744751
H 11.909318923950195 8.179868698120117 -1.8695627450942993
