19
Generated by QM7 dataset
C 1.876479148864746 0.0013983973767608404 -0.04535342752933502
C 4.766286373138428 -0.0859636440873146 0.11005765199661255
C 5.569117546081543 -1.590336799621582 2.4440395832061768
O 5.695067882537842 -1.410699486732483 -2.0587053298950195
C 5.851064682006836 2.62127685546875 0.11440402269363403
C 8.736279487609863 2.7732486724853516 0.09958856552839279
O 9.756316184997559 1.64311683177948 -2.1108617782592773
H 1.2556285858154297 1.0041248798370361 -1.7478265762329102
H 1.0537680387496948 0.9430489540100098 1.6032058000564575
H 1.0870271921157837 -1.9089257717132568 -0.17500753700733185
H 5.03217077255249 -0.6261985301971436 4.194114685058594
H 7.611042022705078 -1.9253664016723633 2.4674720764160156
H 4.691906452178955 -3.467496395111084 2.4410159587860107
H 4.952008247375488 -0.6277481317520142 -3.5529496669769287
H 5.128981113433838 3.6659176349639893 1.7527209520339966
H 5.175601005554199 3.592369318008423 -1.5911494493484497
H 9.567758560180664 1.8653297424316406 1.758957028388977
H 9.327688217163086 4.755061149597168 0.11589690297842026
H 9.014031410217285 -0.050228919833898544 -2.226626396179199
