15
Generated by QM7 dataset
C 2.163623094558716 -0.47192129492759705 -0.042802296578884125
C 5.02468729019165 -0.35300084948539734 -0.15217964351177216
O 5.777629852294922 2.222015619277954 0.24265973269939423
C 8.295822143554688 2.6793293952941895 0.18838679790496826
N 9.985785484313965 0.968031108379364 -0.20363688468933105
N 12.401251792907715 2.0111031532287598 -0.15025211870670319
C 14.083883285522461 0.3017325699329376 -0.5887819528579712
H 1.494905710220337 -2.40824818611145 -0.31577324867248535
H 1.3283263444900513 0.735008955001831 -1.501916527748108
H 1.4735517501831055 0.2233845293521881 1.780273199081421
H 5.678230285644531 -0.9980588555335999 -2.007796287536621
H 5.829370498657227 -1.5501044988632202 1.3330128192901611
H 8.680476188659668 4.698520660400391 0.5201092958450317
H 16.099502563476562 0.8150577545166016 -0.6127058863639832
H 13.610771179199219 -1.6962370872497559 -0.9518928527832031
