15
Generated by QM7 dataset
O 3.998169183731079 -0.6820588707923889 -2.5869784355163574
C 4.407937526702881 0.11187178641557693 -0.05070135369896889
C 6.013221740722656 2.4772040843963623 -0.08755101263523102
C 4.745687961578369 4.930975914001465 -1.1131809949874878
C 5.665266513824463 6.436501502990723 1.2191568613052368
C 6.201930046081543 3.861088514328003 2.4718563556671143
O 6.566628456115723 3.1807491779327393 4.6262383460998535
H 3.050452709197998 -2.256862163543701 -2.5109925270080566
H 5.372642517089844 -1.4109262228012085 0.9640249013900757
H 2.5684022903442383 0.44244158267974854 0.8370164036750793
H 7.894028663635254 2.14327073097229 -0.8981679081916809
H 2.680746555328369 4.831935405731201 -1.2577450275421143
H 5.4914116859436035 5.59899377822876 -2.9227449893951416
H 7.374145984649658 7.55718469619751 0.9137392640113831
H 4.221856117248535 7.568749904632568 2.1631128787994385
