16
Generated by QM7 dataset
N 4.487211227416992 -0.7071166038513184 2.7603039741516113
C 4.8771185874938965 0.008957302197813988 0.12449515610933304
C 5.857546329498291 2.6520793437957764 -0.07483315467834473
C 8.065690994262695 3.408782482147217 -1.0160490274429321
C 8.267910957336426 6.180765151977539 -0.7484449148178101
C 5.592380046844482 6.864429950714111 0.0708458349108696
O 4.316172122955322 4.585193634033203 0.8452745079994202
H 3.402036190032959 -2.29231333732605 2.8212666511535645
H 3.446047782897949 0.6884649991989136 3.5915379524230957
H 3.0812551975250244 -0.1206023246049881 -0.8981868028640747
H 6.1858296394348145 -1.3330695629119873 -0.752659022808075
H 9.519400596618652 2.190532684326172 -1.7660057544708252
H 9.656254768371582 6.676648139953613 0.7026001811027527
H 8.783560752868652 7.125703811645508 -2.5121264457702637
H 4.52126407623291 7.699103355407715 -1.4946788549423218
H 5.591227054595947 8.210387229919434 1.6424554586410522
