17
Generated by QM7 dataset
C 2.192365884780884 -0.22565220296382904 1.0317904949188232
N 4.93683385848999 -0.17780433595180511 0.8198009729385376
C 5.821490287780762 2.302309989929199 -0.046940796077251434
C 8.716381072998047 2.3345866203308105 -0.2395416796207428
C 9.680273056030273 4.857276439666748 -1.1251240968704224
C 11.027099609375 5.201754570007324 -3.2395763397216797
H 1.5846487283706665 -2.096235513687134 1.6699509620666504
H 1.282670497894287 0.15299223363399506 -0.7870331406593323
H 1.5269365310668945 1.1526951789855957 2.4231770038604736
H 5.499518871307373 -1.528240442276001 -0.4352984130382538
H 5.207291603088379 3.768359661102295 1.2846357822418213
H 4.99815559387207 2.741671323776245 -1.8990235328674316
H 9.349817276000977 0.8292118310928345 -1.517506718635559
H 9.54687786102295 1.9350039958953857 1.6179834604263306
H 9.261490821838379 6.480116367340088 0.06640497595071793
H 11.510700225830078 3.640047073364258 -4.479198932647705
H 11.686311721801758 7.070486068725586 -3.7716288566589355
