16
Generated by QM7 dataset
C 5.411098480224609 3.6951327323913574 6.1102213859558105
C 6.428224563598633 3.823747396469116 3.477020502090454
N 8.432374000549316 5.121894836425781 2.9733896255493164
O 8.946435928344727 4.903007984161377 0.38771510124206543
C 11.181641578674316 6.384439945220947 -0.07243320345878601
C 11.567788124084473 7.205336570739746 -2.767296075820923
C 10.762972831726074 9.097387313842773 -0.8129223585128784
H 5.407111167907715 1.7241861820220947 6.72914457321167
H 3.4662113189697266 4.391478061676025 6.1105427742004395
H 6.5548930168151855 4.827097415924072 7.403833389282227
H 5.394223213195801 2.7615513801574707 2.0090246200561523
H 12.860663414001465 5.934892654418945 1.0134601593017578
H 10.1871919631958 6.6157612800598145 -4.1591925621032715
H 13.489130020141602 7.299785137176514 -3.4657578468322754
H 12.134063720703125 10.47293758392334 -0.16835570335388184
H 8.834129333496094 9.782092094421387 -0.8582380414009094
