16
Generated by QM7 dataset
C 6.528021335601807 -2.1533806324005127 0.21537208557128906
O 8.25441837310791 -0.11483865976333618 0.4958641231060028
C 7.096639633178711 2.2509095668792725 -0.13379260897636414
C 9.059082984924316 4.355799674987793 0.13643822073936462
N 9.845019340515137 4.6981425285339355 2.742805242538452
C 8.466483116149902 6.130536079406738 4.398696422576904
O 6.591837406158447 7.3701019287109375 3.8643953800201416
H 7.491384506225586 -3.9018688201904297 0.7524511814117432
H 5.917242527008057 -2.316237211227417 -1.753835916519165
H 4.890214443206787 -1.8960756063461304 1.4524434804916382
H 5.480565071105957 2.5844461917877197 1.119284749031067
H 6.432854652404785 2.180328130722046 -2.094515800476074
H 8.283161163330078 6.139474391937256 -0.569790244102478
H 10.765637397766113 3.891796588897705 -0.9360380172729492
H 11.130166053771973 3.4677419662475586 3.446047782897949
H 9.240514755249023 6.045290470123291 6.3315839767456055
