15
Generated by QM7 dataset
C 1.7017172574996948 -0.12113144248723984 -0.12632818520069122
N 4.439042091369629 -0.15637484192848206 0.2975373864173889
C 5.590433597564697 -2.669635057449341 0.17432723939418793
C 5.844242572784424 2.052847385406494 0.07829135656356812
C 8.356822967529297 2.365086793899536 0.09138715267181396
C 9.486727714538574 4.788244724273682 -0.14728525280952454
N 10.423068046569824 6.75924825668335 -0.3465757668018341
H 0.8616962432861328 1.649749755859375 0.5402160286903381
H 0.7719908952713013 -1.658782720565796 0.9011914730072021
H 1.2904939651489258 -0.32841551303863525 -2.1434407234191895
H 4.2397894859313965 -4.151066780090332 0.6892775893211365
H 7.17888069152832 -2.8181862831115723 1.4923923015594482
H 6.2694878578186035 -3.053910732269287 -1.7423086166381836
H 4.641205310821533 3.717639207839966 -0.10984978079795837
H 9.623676300048828 0.7734082341194153 0.2877486050128937
