17
Generated by QM7 dataset
C 1.6535859107971191 1.0293338298797607 0.039854325354099274
C 4.391383171081543 0.6479681730270386 -0.5357373356819153
C 6.2407073974609375 2.133047342300415 0.36390456557273865
C 8.940502166748047 1.8522906303405762 -0.15529769659042358
C 9.978736877441406 -0.47101423144340515 -0.24228179454803467
C 10.675535202026367 4.003177165985107 -0.21183830499649048
C 10.043157577514648 6.347401142120361 -0.9252288341522217
H 0.5997424125671387 1.3244712352752686 -1.7145106792449951
H 1.32991361618042 2.6611502170562744 1.2688754796981812
H 0.8932357430458069 -0.647571325302124 0.9811080098152161
H 4.834959030151367 -0.9262492656707764 -1.7791393995285034
H 5.74971866607666 3.7368578910827637 1.557191014289856
H 8.855785369873047 -2.175755023956299 -0.04741322994232178
H 11.993392944335938 -0.7512606382369995 -0.5088843703269958
H 12.623710632324219 3.646623373031616 0.34789857268333435
H 8.14859390258789 6.828015327453613 -1.5459282398223877
H 11.442972183227539 7.847201347351074 -0.9291594624519348
