11
Generated by QM7 dataset
O 1.9646159410476685 -0.08741872757673264 1.0630654096603394
C 4.156774044036865 0.2919437885284424 0.4621892273426056
N 5.538069248199463 2.4810593128204346 0.755059003829956
C 7.742623805999756 1.9744426012039185 -0.18923717737197876
N 8.259576797485352 -0.3990534543991089 -1.144531488418579
C 8.099082946777344 -2.5715394020080566 0.5637431144714355
C 5.766971588134766 -1.674713134765625 -0.7360672354698181
H 9.289609909057617 3.353262424468994 -0.38319867849349976
H 9.03984546661377 -4.233421325683594 -0.16153378784656525
H 8.403328895568848 -2.1374502182006836 2.538771390914917
H 5.0750861167907715 -2.601585865020752 -2.4171485900878906
