10
Generated by QM7 dataset
C -1.4213764667510986 2.197052240371704 0.015892596915364265
C 1.1778473854064941 2.234544515609741 0.047621097415685654
N 2.613302230834961 0.13623036444187164 0.10155387967824936
C 1.344842553138733 -2.0608975887298584 0.1230778619647026
N -1.1772048473358154 -2.328312635421753 0.09599808603525162
C -2.512258529663086 -0.16378256678581238 0.042292069643735886
H -2.534935235977173 3.9085583686828613 -0.0274199265986681
H 2.2142865657806396 4.005425930023193 0.03051907755434513
H 2.4612739086151123 -3.778564214706421 0.16671164333820343
H -4.551839828491211 -0.3912489116191864 0.020673604682087898
