10
Generated by QM7 dataset
C 1.8633455038070679 0.02800574153661728 -0.012358808889985085
C 4.697613716125488 -0.00013228082389105111 -0.005952637176960707
C 5.985896587371826 -2.188642978668213 0.009750986471772194
C 6.029568195343018 2.347965717315674 -0.011772993952035904
N 7.106976509094238 4.2567973136901855 -0.015174500644207
H 1.120683193206787 1.9597971439361572 0.04142279550433159
H 1.1187934875488281 -0.9710546731948853 1.640320062637329
H 1.1301696300506592 -0.8761904239654541 -1.7236380577087402
H 5.016429424285889 -3.997413396835327 0.014909938909113407
H 8.040104866027832 -2.2334485054016113 0.015911493450403214
