13
Generated by QM7 dataset
C 1.8653675317764282 0.02142949402332306 0.013379260897636414
C 4.733915328979492 -0.04612821340560913 -0.0725276917219162
C 5.861741542816162 -2.357395648956299 1.1663767099380493
O 6.2520833015441895 -1.6489183902740479 3.7512764930725098
N 6.61850118637085 1.0029910802841187 3.809725761413574
C 5.791821479797363 1.8641014099121094 1.6868829727172852
H 1.0641425848007202 -1.4996299743652344 -1.1372182369232178
H 1.158137559890747 1.824625015258789 -0.7170376777648926
H 1.1456276178359985 -0.1855144202709198 1.9442825317382812
H 5.420925140380859 0.22888362407684326 -2.0003507137298584
H 7.704186916351318 -2.8367435932159424 0.35133787989616394
H 4.640033721923828 -4.022470951080322 1.0752919912338257
H 5.789402961730957 3.8824045658111572 1.1953274011611938
