16
Generated by QM7 dataset
C 1.8118505477905273 -0.026248296722769737 0.11357253789901733
C 4.678924083709717 0.0062171989120543 -0.060187775641679764
O 5.3876471519470215 0.07715751975774765 -2.69696044921875
C 5.981966018676758 2.0067567825317383 1.6521120071411133
C 7.9574480056762695 -0.013813897967338562 2.3417487144470215
C 6.022368431091309 -2.0428128242492676 1.5550178289413452
H 1.163409948348999 -0.07970865070819855 2.078906536102295
H 1.0375163555145264 -1.6856168508529663 -0.8502822518348694
H 1.002726435661316 1.6610503196716309 -0.7706869840621948
H 7.224536418914795 0.09259658306837082 -2.721848249435425
H 4.841308116912842 2.6395695209503174 3.2617619037628174
H 6.736722469329834 3.6683363914489746 0.6820210814476013
H 9.645578384399414 0.03095371462404728 1.142830729484558
H 8.54373550415039 -0.05572802200913429 4.3215203285217285
H 6.813294410705566 -3.640462875366211 0.5091866850852966
H 4.897943496704102 -2.7747981548309326 3.133789539337158
