15
Generated by QM7 dataset
C 1.8653486967086792 -0.298652321100235 0.012018658220767975
C 4.737789154052734 -0.08671953529119492 0.03785121440887451
C 5.855411052703857 -1.37953782081604 -2.166344165802002
C 6.759606838226318 -2.45133376121521 -3.951587438583374
C 5.49677848815918 2.685546398162842 0.20363688468933105
C 5.595403671264648 4.225824356079102 -2.1949925422668457
O 5.9024271965026855 3.6928839683532715 2.268105983734131
H 1.039273738861084 0.6628214120864868 1.6488049030303955
H 1.267099142074585 -2.2804081439971924 0.06387273967266083
H 1.0495728254318237 0.5566188097000122 -1.6890939474105835
H 5.456092834472656 -1.0077153444290161 1.751587152481079
H 7.56340217590332 -3.4108989238739014 -5.530755996704102
H 3.8386006355285645 4.00657844543457 -3.2558281421661377
H 7.210117816925049 3.6458864212036133 -3.3436248302459717
H 5.817162990570068 6.225986003875732 -1.7167973518371582
