14
Generated by QM7 dataset
N 1.889726161956787 0.0 0.0
C 4.064819812774658 0.0 0.0
C 6.79358434677124 0.0 0.0
C 7.8776445388793945 2.152341365814209 1.5658271312713623
C 10.47838020324707 1.1722348928451538 2.189058780670166
C 9.987561225891113 -1.6187015771865845 2.587980031967163
O 7.858255863189697 -2.2841875553131104 1.048401117324829
H 7.498414516448975 0.13254539668560028 -1.944754958152771
H 6.803127288818359 2.423309087753296 3.3204188346862793
H 7.900737285614014 3.954913377761841 0.5527259707450867
H 11.737580299377441 1.4472845792770386 0.5644422769546509
H 11.339717864990234 2.084519147872925 3.830437183380127
H 11.612726211547852 -2.7800328731536865 2.062654972076416
H 9.497215270996094 -2.0192668437957764 4.55590295791626
