19
Generated by QM7 dataset
C 4.042540073394775 -0.9706389307975769 -2.6976029872894287
C 4.656889915466309 0.007048678584396839 -0.06298457086086273
C 6.201249599456787 2.448971748352051 -0.1651998609304428
O 8.590940475463867 1.9501973390579224 -1.3960918188095093
C 4.751962184906006 4.823337078094482 -1.1163368225097656
C 5.986897945404053 6.329221725463867 1.0458688735961914
C 6.4132771492004395 3.8091776371002197 2.435478925704956
H 2.9166221618652344 -2.7006075382232666 -2.5715203285217285
H 5.762889862060547 -1.4045956134796143 -3.759685754776001
H 2.9623725414276123 0.4216924011707306 -3.7795090675354004
H 5.707596302032471 -1.4454704523086548 0.9764970541000366
H 2.881643295288086 0.3113890588283539 0.9626076221466064
H 9.497366905212402 3.547715187072754 -1.3966965675354004
H 2.6904029846191406 4.6954026222229 -0.9650453329086304
H 5.237848281860352 5.473667144775391 -3.0166454315185547
H 7.741338729858398 7.283949375152588 0.4966011345386505
H 4.760220050811768 7.685534954071045 2.0060577392578125
H 8.23697566986084 3.642730474472046 3.3920395374298096
H 4.913193225860596 3.3431146144866943 3.784327745437622
