14
Generated by QM7 dataset
C 5.675395488739014 -2.1029438972473145 0.8759069442749023
C 4.529824733734131 0.023489296436309814 0.12443846464157104
C 5.691061496734619 2.435082197189331 0.08664394170045853
C 4.678508281707764 4.834996700286865 -0.13197846710681915
C 6.693485736846924 6.594482898712158 -0.09983423352241516
C 8.896187782287598 5.232424736022949 0.11262767761945724
N 8.273069381713867 2.7180497646331787 0.21140366792678833
H 4.633948802947998 -3.872521162033081 0.8698220252990723
H 7.606960296630859 -2.1882271766662598 1.5468542575836182
H 2.5579333305358887 -0.07783781737089157 -0.453553169965744
H 2.6871337890625 5.2749247550964355 -0.2892981767654419
H 6.549753189086914 8.630379676818848 -0.22739075124263763
H 10.84993839263916 5.827178478240967 0.19252529740333557
H 9.537240028381348 1.292629361152649 0.32758402824401855
