20
Generated by QM7 dataset
C 2.642781972885132 -1.6802500486373901 3.4706709384918213
C 5.480545997619629 -1.411700963973999 3.1005492210388184
C 6.090360641479492 0.30736395716667175 0.8594852685928345
N 8.835225105285645 0.5468489527702332 0.5840198397636414
C 9.465335845947266 2.2489442825317383 -1.5268609523773193
C 12.345637321472168 2.443737030029297 -1.7832400798797607
O 13.40753173828125 -0.017234303057193756 -2.034252405166626
H 2.2438418865203857 -2.915658473968506 5.080925464630127
H 1.7497730255126953 -2.500844717025757 1.7944839000701904
H 1.766723871231079 0.15713073313236237 3.8397912979125977
H 6.305335998535156 -3.2890305519104004 2.8008198738098145
H 6.314463138580322 -0.6453414559364319 4.836281776428223
H 5.23724365234375 2.1711630821228027 1.1659420728683472
H 5.274584770202637 -0.49790504574775696 -0.8667795658111572
H 9.572463989257812 1.2627527713775635 2.2188408374786377
H 8.662958145141602 4.13502311706543 -1.2315912246704102
H 8.694365501403809 1.4600402116775513 -3.279733180999756
H 13.179347038269043 3.341168165206909 -0.1147063747048378
H 12.858963012695312 3.555311918258667 -3.4502809047698975
H 12.31627082824707 -1.1078708171844482 -1.0124397277832031
