14
Generated by QM7 dataset
C 0.8017541170120239 2.679877281188965 0.500985324382782
C 2.5908901691436768 0.6221545338630676 -0.3914189636707306
N 1.7422330379486084 -1.747562050819397 0.7287539839744568
N -0.6516342759132385 -2.5665693283081055 0.3456498086452484
C -2.365729331970215 -0.8389250040054321 0.023338118568062782
C -1.9114012718200684 1.9707953929901123 -0.10697739571332932
H 1.2815744876861572 4.494411468505859 -0.37475159764289856
H 1.002594232559204 2.9336109161376953 2.5502610206604004
H 4.518618583679199 1.0414658784866333 0.22661596536636353
H 2.5991103649139404 0.48193684220314026 -2.457740068435669
H 3.003946542739868 -3.1693918704986572 0.38586318492889404
H -4.330288410186768 -1.468827486038208 -0.2664324939250946
H -2.4003491401672363 2.570934534072876 -2.028243064880371
H -3.2266507148742676 2.9166409969329834 1.1802095174789429
