12
Generated by QM7 dataset
C 1.953258752822876 -0.08106925338506699 0.16470852494239807
S 5.295938491821289 -0.10212080180644989 -0.11920392513275146
O 6.290104389190674 -1.3292711973190308 2.1222002506256104
O 5.904165744781494 -1.055752158164978 -2.615872383117676
C 6.02656364440918 3.095163583755493 0.06345700472593307
C 5.869565010070801 4.57119083404541 -1.9859699010849
H 1.1418858766555786 0.9543873071670532 -1.424513339996338
H 1.4325824975967407 0.7978801727294922 1.9573594331741333
H 1.2968056201934814 -2.037767171859741 0.12952183187007904
H 6.632749557495117 3.8086297512054443 1.880617618560791
H 5.307409286499023 3.8352746963500977 -3.8207805156707764
H 6.35507345199585 6.561488151550293 -1.8799940347671509
