15
Generated by QM7 dataset
C 1.7010180950164795 -0.25936490297317505 -0.012339911423623562
C 4.482487201690674 0.017309891059994698 -0.007124267518520355
C 6.050317287445068 2.10691237449646 -0.013719411566853523
C 5.37566614151001 4.821900844573975 -0.0286860428750515
N 8.54263973236084 1.3677648305892944 -0.005196746904402971
C 8.504353523254395 -1.1107243299484253 0.006387274246662855
N 6.090908527374268 -2.017244815826416 0.00563138397410512
H 0.7628635168075562 1.583514928817749 0.004384164698421955
H 1.072211742401123 -1.3101849555969238 1.6547386646270752
H 1.0762556791305542 -1.2783241271972656 -1.7005456686019897
H 7.070278167724609 6.007760524749756 -0.009599808603525162
H 4.241339206695557 5.29544734954834 1.6347075700759888
H 4.284614086151123 5.286849021911621 -1.7231467962265015
H 10.140893936157227 -2.334454298019409 0.015439062379300594
H 5.591246128082275 -3.859557867050171 0.01307690516114235
