17
Generated by QM7 dataset
N 2.408928394317627 -0.19781653583049774 1.470376968383789
C 4.207361698150635 -0.3078930675983429 -0.6277481317520142
C 5.976768970489502 1.9240813255310059 -0.37885230779647827
C 8.002498626708984 1.6622408628463745 1.6257503032684326
O 7.129369735717773 2.786287784576416 3.9131882190704346
C 6.487411022186279 3.604614734649658 -2.6445584297180176
N 4.783217906951904 4.465441703796387 -0.6737062931060791
H 1.0305054187774658 -1.5086817741394043 1.167378306388855
H 1.5187350511550903 1.5172611474990845 1.332200288772583
H 3.17496657371521 -0.25093674659729004 -2.4235737323760986
H 5.257709503173828 -2.0900938510894775 -0.5698091387748718
H 9.749115943908691 2.6225430965423584 1.0729864835739136
H 8.466917991638184 -0.31908026337623596 1.9974972009658813
H 5.437025547027588 2.0828938484191895 4.165126323699951
H 5.616889476776123 3.140195608139038 -4.438040733337402
H 8.274468421936035 4.593262672424316 -2.7920515537261963
H 5.643931865692139 5.667118549346924 0.5803915858268738
