17
Generated by QM7 dataset
C 4.682363510131836 -1.889669418334961 -0.8013761639595032
O 4.1285223960876465 0.5914464592933655 0.06583806127309799
C 6.279673099517822 2.243086099624634 -0.020635809749364853
C 6.671734809875488 3.3273541927337646 -2.6926329135894775
C 5.577073097229004 5.9285054206848145 -2.5294740200042725
C 5.06620454788208 6.587547302246094 -0.1492883712053299
C 5.742046356201172 4.5409932136535645 1.6791350841522217
H 2.947500228881836 -3.0082173347473145 -0.7113118171691895
H 6.096596717834473 -2.7777085304260254 0.418120801448822
H 5.3475470542907715 -1.8689957857131958 -2.7573750019073486
H 7.950210094451904 1.2212165594100952 0.657681405544281
H 5.707634449005127 2.229480028152466 -4.153334617614746
H 8.684671401977539 3.4631500244140625 -3.1528000831604004
H 5.272222518920898 7.125382423400879 -4.15841817855835
H 4.291114330291748 8.39144229888916 0.42027509212493896
H 7.433464527130127 5.102902889251709 2.7311644554138184
H 4.196628093719482 4.1879167556762695 3.0068187713623047
