17
Generated by QM7 dataset
C -1.6658124923706055 -0.0674443244934082 -2.1104650497436523
C -1.1303963661193848 2.047159194946289 -0.14730414748191833
C -2.1154727935791016 0.06256883591413498 1.7728276252746582
N -1.2846357822418213 -1.969208002090454 -0.03450639918446541
C 1.4722288846969604 -2.3217554092407227 0.332478404045105
C 3.040210247039795 0.0970374345779419 -0.14482861757278442
N 1.611860752105713 2.444171667098999 0.300126314163208
H -3.6146113872528076 -0.05349814519286156 -2.8276162147521973
H -0.42227819561958313 -0.21455951035022736 -3.7588164806365967
H -2.231048583984375 3.786935567855835 -0.29993733763694763
H -1.2557607889175415 0.04066690802574158 3.657508134841919
H -4.174253940582275 0.10520105063915253 2.033855438232422
H 1.8040270805358887 -3.0029449462890625 2.2627391815185547
H 2.1291921138763428 -3.818720817565918 -0.9403277039527893
H 3.6830005645751953 0.09323908388614655 -2.116719961166382
H 4.738828659057617 0.08775888383388519 1.0373274087905884
H 2.3837950229644775 3.855891704559326 -0.7561928033828735
