16
Generated by QM7 dataset
C 2.497178554534912 -0.2520516812801361 1.7806510925292969
C 4.762109756469727 0.0 0.0
C 4.012115478515625 -0.8411170840263367 -2.6858110427856445
C 6.2062764167785645 -0.8146798610687256 -4.558019638061523
O 8.181626319885254 -2.3796186447143555 -3.6426172256469727
C 5.672995567321777 2.5722384452819824 0.0
N 6.399047374725342 4.622572422027588 0.0
H 3.005817174911499 0.30243176221847534 3.7098159790039062
H 1.8235479593276978 -2.2078237533569336 1.8415002822875977
H 0.9211091995239258 0.949851930141449 1.1794158220291138
H 6.252877235412598 -1.2526239156723022 0.7102913856506348
H 2.4874086380004883 0.35540080070495605 -3.421764850616455
H 3.273837089538574 -2.7766313552856445 -2.5764336585998535
H 6.942098140716553 1.097156047821045 -4.844180583953857
H 5.581230640411377 -1.5495187044143677 -6.389069557189941
H 9.561202049255371 -2.2720932960510254 -4.856539249420166
