14
Generated by QM7 dataset
C 1.8903687000274658 -0.10234756767749786 0.007180959451943636
C 4.762109756469727 0.0 0.0
C 5.672995567321777 2.5722384452819824 0.0
C 6.423746109008789 4.692322254180908 0.0
C 7.33463191986084 7.264560699462891 0.0
O 5.375647068023682 8.913819313049316 -0.8024721741676331
H 1.2415311336517334 -2.0654518604278564 0.006500658113509417
H 1.105281949043274 0.8359770178794861 -1.662203073501587
H 1.1138991117477417 0.8318763375282288 1.6828956604003906
H 5.470908164978027 -1.0065815448760986 -1.665056586265564
H 5.479412078857422 -1.0096806287765503 1.6595196723937988
H 8.93139362335205 7.47789192199707 -1.2971080541610718
H 7.945372581481934 7.844574451446533 1.8881765604019165
H 6.117610454559326 10.581162452697754 -0.9503810405731201
