15
Generated by QM7 dataset
C 1.5171666145324707 2.657294988632202 -1.1145415306091309
C -0.6254615783691406 1.7371495962142944 0.5147802829742432
C -2.5901153087615967 -0.043879441916942596 -0.4521736800670624
N -1.434377670288086 -2.551640510559082 -0.05514220893383026
C 1.3111298084259033 -2.2539329528808594 -0.43291735649108887
C 1.8206944465637207 0.3507709503173828 0.5269312262535095
H 1.3854715824127197 2.406282663345337 -3.1429169178009033
H 2.484234094619751 4.3699541091918945 -0.5438631772994995
H -1.177034854888916 2.7884042263031006 2.1756982803344727
H -4.37067174911499 0.11238200962543488 0.5899158120155334
H -2.9708385467529297 0.2603664696216583 -2.4647886753082275
H -1.7058935165405273 -3.010711669921875 1.7968271970748901
H 2.351858615875244 -3.693016290664673 0.6240253448486328
H 1.7834668159484863 -2.4322476387023926 -2.4393906593322754
H 2.9950459003448486 0.4283442199230194 2.194331169128418
