18
Generated by QM7 dataset
N 1.8908977508544922 0.04728094860911369 0.32677143812179565
C 4.600651741027832 0.08581246435642242 -0.1349642425775528
C 5.849628448486328 2.0174715518951416 1.6533403396606445
C 7.861695289611816 -0.03507331758737564 2.270014524459839
C 10.282283782958984 0.010998206213116646 0.7167920470237732
O 11.849187850952148 2.029395818710327 1.5534682273864746
C 5.871038913726807 -2.0204763412475586 1.430957317352295
H 0.9886291027069092 -1.4619299173355103 -0.4596758782863617
H 0.9687492251396179 1.6106325387954712 -0.3188157081604004
H 5.181931495666504 0.1964748203754425 -2.115642786026001
H 4.734557628631592 2.5676465034484863 3.3135592937469482
H 6.548070907592773 3.737027883529663 0.7421143651008606
H 8.306139945983887 -0.1593606024980545 4.291965007781982
H 9.923727035522461 0.2496139258146286 -1.3067266941070557
H 11.337411880493164 -1.7486014366149902 0.9770640134811401
H 10.935882568359375 3.5989456176757812 1.2766989469528198
H 6.5923285484313965 -3.6214144229888916 0.33850663900375366
H 4.759237289428711 -2.762061595916748 3.016815423965454
