21
Generated by QM7 dataset
C 4.20853328704834 -0.050890326499938965 -3.330113172531128
N 6.380490303039551 1.5809259414672852 -2.8837032318115234
C 7.438755512237549 1.139221429824829 -0.3439490497112274
C 9.811590194702148 2.810948610305786 0.18014758825302124
C 10.494839668273926 2.6680288314819336 2.9942522048950195
C 12.067960739135742 1.9023116827011108 -1.4127025604248047
N 9.284564971923828 5.475632667541504 -0.47333860397338867
H 3.4267537593841553 0.3415868878364563 -5.204381465911865
H 2.7123806476593018 0.27217724919319153 -1.9374984502792358
H 4.753568172454834 -2.046422243118286 -3.288123369216919
H 5.791897296905518 3.4192705154418945 -2.9271857738494873
H 7.953006744384766 -0.8588805198669434 -0.13211075961589813
H 5.980284214019775 1.5615373849868774 1.0704354047775269
H 8.945698738098145 3.3598763942718506 4.182682037353516
H 12.172652244567871 3.8034329414367676 3.4268481731414795
H 10.896708488464355 0.7170565724372864 3.560999870300293
H 11.679509162902832 2.0284886360168457 -3.4426653385162354
H 12.527239799499512 -0.07109149545431137 -0.9848119020462036
H 13.7622709274292 3.0312907695770264 -1.030732274055481
H 9.038862228393555 5.566622734069824 -2.3856658935546875
H 10.85056209564209 6.5377912521362305 -0.1121741458773613
