15
Generated by QM7 dataset
C 1.7605822086334229 0.08832579851150513 -0.012169836089015007
C 4.565276145935059 0.009165171533823013 -9.448630589758977e-05
C 6.181483268737793 2.0658109188079834 0.0020598014816641808
N 8.620628356933594 1.1907163858413696 0.016761871054768562
C 8.607588768005371 -1.3983784914016724 0.023130247369408607
C 6.134523391723633 -2.159597873687744 0.01404066476970911
N 5.381921291351318 -4.5702080726623535 0.019199617207050323
H 1.0630465745925903 2.035405158996582 0.0032503290567547083
H 1.0030288696289062 -0.8760392665863037 1.65216863155365
H 1.0202820301055908 -0.843044638633728 -1.7045518159866333
H 5.799644947052002 4.073096752166748 -0.0043652672320604324
H 10.186776161193848 2.2858316898345947 0.022922378033399582
H 10.355907440185547 -2.4508614540100098 0.03575361892580986
H 3.5368492603302 -5.076843738555908 -0.05723980441689491
H 6.61865234375 -6.032251358032227 -0.03889056295156479
