19
Generated by QM7 dataset
C 5.966073513031006 -2.2555959224700928 -0.7777546048164368
C 4.678225040435791 0.14297668635845184 0.17102020978927612
N 3.5736231803894043 -0.26845449209213257 2.672318458557129
C 6.526981830596924 2.2959606647491455 0.37337207794189453
N 6.899087905883789 4.045619964599609 -1.746050238609314
C 5.601242542266846 4.9932990074157715 0.4975081980228424
C 6.9000139236450195 6.861330986022949 2.150886297225952
H 6.789370059967041 -1.9450572729110718 -2.651115655899048
H 4.616053104400635 -3.8173980712890625 -0.9266650080680847
H 7.49960470199585 -2.8481385707855225 0.48172900080680847
H 3.1432948112487793 0.6347967982292175 -1.1317380666732788
H 4.947510719299316 -0.8428367376327515 3.8941397666931152
H 2.31852388381958 -1.7270585298538208 2.577718734741211
H 8.21790885925293 1.8125874996185303 1.4257228374481201
H 5.62847375869751 3.721078634262085 -3.16279673576355
H 3.592785120010376 5.355181694030762 0.33281856775283813
H 8.940369606018066 6.526395797729492 2.266688585281372
H 6.126832485198975 6.76986837387085 4.066690444946289
H 6.604970932006836 8.778836250305176 1.4310706853866577
