16
Generated by QM7 dataset
C 3.5260400772094727 -1.705742359161377 1.2066657543182373
C 6.130555152893066 -0.5853804349899292 0.7063985466957092
C 6.014922618865967 2.2592997550964355 0.13692955672740936
O 4.910434246063232 3.5634565353393555 2.234449863433838
C 8.617321014404297 3.4127321243286133 -0.3910788297653198
C 9.686452865600586 2.5097830295562744 -2.7819414138793945
N 10.537282943725586 1.775359869003296 -4.663995265960693
H 3.6785976886749268 -3.743037223815918 1.530489206314087
H 2.2691264152526855 -1.4052948951721191 -0.40842652320861816
H 2.650718927383423 -0.8627544641494751 2.880093812942505
H 6.993933200836182 -1.6008626222610474 -0.8778533935546875
H 7.310216426849365 -0.9213926792144775 2.377161979675293
H 4.769158363342285 2.584956407546997 -1.4871200323104858
H 5.684749603271484 2.9499380588531494 3.785801649093628
H 9.905868530273438 3.0009984970092773 1.1787922382354736
H 8.449853897094727 5.478278160095215 -0.44716590642929077
