18
Generated by QM7 dataset
C 2.6922550201416016 0.2595160901546478 -1.6044719219207764
N 5.392806053161621 0.7452890872955322 -1.7992838621139526
C 6.573922634124756 0.839548647403717 0.7136550545692444
C 9.395605087280273 1.4999322891235352 0.5591132640838623
C 11.116862297058105 -0.12103696167469025 -1.1143903732299805
C 11.376019477844238 2.251136302947998 -2.7285566329956055
O 9.8458890914917 3.7209086418151855 -1.003860354423523
H 1.8570528030395508 0.24071331322193146 -3.497391700744629
H 1.729023814201355 1.7214082479476929 -0.5000782012939453
H 2.3287851810455322 -1.5879935026168823 -0.7458370923995972
H 5.675471305847168 2.4663004875183105 -2.6350908279418945
H 6.365164756774902 -0.9925597310066223 1.6577622890472412
H 5.62628173828125 2.2638351917266846 1.8835656642913818
H 10.18029499053955 1.7966382503509521 2.457003116607666
H 10.226876258850098 -1.7280033826828003 -2.0586676597595215
H 12.867579460144043 -0.7345365285873413 -0.20369358360767365
H 13.292295455932617 3.009275436401367 -2.88049054145813
H 10.511299133300781 2.1461620330810547 -4.603240489959717
