11
Generated by QM7 dataset
C 1.889726161956787 0.0 0.0
C 4.618490695953369 0.0 0.0
C 6.86756706237793 0.0 0.0
C 9.596331596374512 0.0 0.0
O 10.52131462097168 2.522822141647339 -0.04646836593747139
H 1.1451174020767212 1.9291647672653198 0.022072000429034233
H 1.1450039148330688 -0.9836591482162476 1.6596519947052002
H 1.1450228691101074 -0.9454110860824585 -1.681723952293396
H 10.349991798400879 -0.99150151014328 -1.650524616241455
H 10.348669052124023 -0.9210336208343506 1.6903789043426514
H 9.59213638305664 3.393702507019043 -1.3712797164916992
