18
Generated by QM7 dataset
C -3.272684335708618 1.6114450693130493 1.0720983743667603
C -2.245845079421997 -0.490913063287735 -0.5504016280174255
C -0.6986506581306458 -2.6047229766845703 0.5239454507827759
C 2.0359153747558594 -2.430187702178955 -0.45249491930007935
N 3.1970386505126953 0.09989092499017715 -0.44824305176734924
C 1.6438539028167725 2.080116033554077 0.6820966601371765
C -0.9316727519035339 2.0354807376861572 -0.49641215801239014
H -5.004183769226074 2.5260725021362305 0.4640978276729584
H -3.0870566368103027 1.463366150856018 3.106501817703247
H -3.22459077835083 -1.0021973848342896 -2.2735862731933594
H -0.698083758354187 -2.5176820755004883 2.5938379764556885
H -1.521985411643982 -4.427987575531006 -0.003987322095781565
H 3.2224366664886475 -3.7378594875335693 0.6338141560554504
H 2.0778861045837402 -3.099982261657715 -2.413104772567749
H 4.90047550201416 0.029800981283187866 0.44142112135887146
H 1.5448700189590454 1.8279321193695068 2.735888719558716
H 2.5257890224456787 3.9196698665618896 0.33854442834854126
H -1.050990104675293 3.1917474269866943 -2.1820857524871826
