19
Generated by QM7 dataset
C 1.8039703369140625 0.35116779804229736 0.1856088936328888
C 4.5497236251831055 -0.3820837140083313 -0.0682758018374443
C 4.94042444229126 -3.1165552139282227 -0.7226879596710205
C 6.363142490386963 1.357390284538269 0.34376007318496704
C 9.099843978881836 1.1985965967178345 0.09820906817913055
C 10.319567680358887 -0.7836505174636841 -1.530489206314087
C 10.54503059387207 2.9727091789245605 1.2044169902801514
H 1.5532982349395752 2.3640472888946533 0.5952826142311096
H 0.9137581586837769 -0.7167731523513794 1.7185736894607544
H 0.7946109175682068 -0.05514220893383026 -1.5744819641113281
H 3.3863513469696045 -4.270270824432373 0.013133596628904343
H 6.653555870056152 -3.8922877311706543 0.12523214519023895
H 5.001727104187012 -3.3693060874938965 -2.773853302001953
H 5.717479705810547 3.227538824081421 0.93641597032547
H 9.279934883117676 -1.0448673963546753 -3.3003499507904053
H 10.44823932647705 -2.589170455932617 -0.5335074663162231
H 12.250810623168945 -0.2503131330013275 -2.0599148273468018
H 9.748228073120117 4.475589752197266 2.351518392562866
H 12.588146209716797 2.9590277671813965 1.0138192176818848
