11
Generated by QM7 dataset
C 2.1732795238494873 -0.2976885437965393 0.014720967039465904
O 4.757328987121582 0.3718414008617401 0.02698528952896595
S 5.401215076446533 3.366395950317383 -0.04486209899187088
O 5.050557613372803 4.45164680480957 -2.5169830322265625
O 5.002974510192871 4.57884407043457 2.3600223064422607
C 8.766779899597168 3.1599245071411133 -0.006670733448117971
C 11.034866333007812 3.0192344188690186 0.01904843933880329
H 2.024104595184326 -2.3572821617126465 0.06939074397087097
H 1.2588222026824951 0.3869403302669525 -1.7084635496139526
H 1.2185899019241333 0.4796880781650543 1.675620198249817
H 13.043475151062012 2.9048492908477783 0.041536182165145874
