16
Generated by QM7 dataset
C 1.9803762435913086 -0.4990955591201782 0.023564884439110756
O 4.6243109703063965 -0.058316949754953384 0.02985767275094986
C 5.468886375427246 2.5294928550720215 0.0
C 4.548740863800049 3.890964984893799 -2.395397901535034
C 4.548759937286377 3.942837953567505 2.3641796112060547
C 8.197650909423828 2.5294928550720215 0.0
N 10.3727445602417 2.5294928550720215 0.0
H 1.6819318532943726 -2.5445919036865234 0.055954791605472565
H 1.0959088802337646 0.23462839424610138 -1.6915884017944336
H 1.0772384405136108 0.29149025678634644 1.7032668590545654
H 5.0190558433532715 2.7988545894622803 -4.0921831130981445
H 5.400137901306152 5.770259857177734 -2.5827832221984863
H 2.4946842193603516 4.1413350105285645 -2.3928847312927246
H 5.019018173217773 2.8885598182678223 4.085512161254883
H 2.4942116737365723 4.1931891441345215 2.357112169265747
H 5.399778842926025 5.826535701751709 2.5109546184539795
