13
Generated by QM7 dataset
N 1.758409023284912 0.0041196029633283615 0.11608587950468063
C 4.493352890014648 0.0012472192756831646 0.19210955500602722
C 5.572651386260986 2.1957294940948486 -1.2414745092391968
C 7.066120624542236 1.3587697744369507 -3.1165552139282227
C 7.061188697814941 -1.3647791147232056 -3.111339569091797
C 5.568777084350586 -2.194709062576294 -1.2380729913711548
H 1.1110833883285522 1.5427913665771484 1.0678653717041016
H 1.1083621978759766 -1.5300545692443848 1.0726841688156128
H 5.172766208648682 0.002702308353036642 2.1468045711517334
H 5.206459999084473 4.154884338378906 -0.8134137392044067
H 8.083775520324707 2.5087437629699707 -4.4558796882629395
H 8.078522682189941 -2.517871141433716 -4.450909614562988
H 5.200412750244141 -4.151066780090332 -0.8085570931434631
