18
Generated by QM7 dataset
C 1.889726161956787 0.0 0.0
C 4.618490695953369 0.0 0.0
C 6.86756706237793 0.0 0.0
C 9.596331596374512 0.0 0.0
C 10.682111740112305 2.6819937229156494 -0.02724985033273697
C 10.030779838562012 4.126689434051514 -2.4495575428009033
N 11.206283569335938 6.621978282928467 -2.421721935272217
H 1.1454763412475586 1.9293159246444702 0.021183829754590988
H 1.1449472904205322 -0.9828843474388123 1.6600488424301147
H 1.1450984477996826 -0.9459590911865234 -1.6814216375350952
H 10.314502716064453 -1.056111216545105 -1.6309847831726074
H 10.292412757873535 -0.9773096442222595 1.6889994144439697
H 12.743670463562012 2.554248332977295 0.15877479314804077
H 9.992966651916504 3.7346279621124268 1.622499942779541
H 7.983639240264893 4.3582563400268555 -2.6419315338134766
H 10.706016540527344 3.081784248352051 -4.104466438293457
H 10.532710075378418 7.629826068878174 -0.9248319864273071
H 10.667598724365234 7.589178085327148 -3.9975078105926514
