12
Generated by QM7 dataset
C 1.815667748451233 0.01479655597358942 -0.015382370911538601
C 4.610686302185059 0.16652266681194305 -0.0019464179640635848
C 6.080288410186768 2.228364944458008 0.008239205926656723
S 9.291858673095703 1.6109158992767334 0.023224733769893646
N 8.691908836364746 -1.5200201272964478 0.016421720385551453
C 6.177873611450195 -2.157594919204712 0.0031936371233314276
O 5.332278251647949 -4.300960063934326 -0.0032125343568623066
H 0.9560880661010742 1.8968693017959595 -0.009127377532422543
H 1.134421467781067 -0.9985312819480896 1.6545875072479248
H 1.14997398853302 -0.9805411100387573 -1.7022652626037598
H 5.370431423187256 4.146304607391357 0.007237650919705629
H 10.043290138244629 -2.869549036026001 0.022072000429034233
