18
Generated by QM7 dataset
C 4.14796781539917 -0.8604868054389954 -2.603929281234741
N 4.333349704742432 0.2756543457508087 -0.10045783966779709
C 6.049334526062012 2.446004867553711 -0.18698839843273163
C 4.576633453369141 4.859241962432861 -0.919030487537384
C 6.01454496383667 6.213891983032227 1.229984998703003
C 6.285531520843506 3.597339391708374 2.5197229385375977
O 8.617831230163574 3.11784029006958 3.8434572219848633
H 2.825310707092285 -2.4489905834198 -2.5404722690582275
H 5.978658676147461 -1.5815874338150024 -3.2444329261779785
H 3.429663896560669 0.48862648010253906 -3.9983582496643066
H 4.902459621429443 -1.0764447450637817 1.1539801359176636
H 7.859163284301758 2.1611475944519043 -1.1525628566741943
H 2.526563882827759 4.796011447906494 -0.6112130284309387
H 4.940367698669434 5.585916996002197 -2.819244623184204
H 7.809538841247559 7.062511444091797 0.6422989964485168
H 4.917860984802246 7.617334842681885 2.276439666748047
H 4.679037570953369 3.190934896469116 3.770268201828003
H 9.95201587677002 3.582523822784424 2.6702020168304443
