18
Generated by QM7 dataset
C 1.8801641464233398 0.2722906470298767 -0.3885654807090759
C 4.663069248199463 -0.012755651026964188 0.34379786252975464
C 5.8009867668151855 -2.5377132892608643 -0.615313708782196
C 7.391172409057617 -2.3144986629486084 -2.94368314743042
C 7.846634387969971 -0.08229757100343704 -4.043503761291504
C 6.832512855529785 2.3600411415100098 -3.0127904415130615
N 6.133729934692383 2.2535550594329834 -0.3499961793422699
H 1.0856099128723145 2.0102906227111816 0.41706255078315735
H 0.7768475413322449 -1.303816556930542 0.38098767399787903
H 1.5987650156021118 0.3127118945121765 -2.4344396591186523
H 4.678489685058594 -0.10023107379674911 2.4129724502563477
H 4.299807071685791 -3.9134716987609863 -0.9657445549964905
H 7.009768962860107 -3.329035997390747 0.8817651271820068
H 8.175748825073242 -4.039875507354736 -3.7500481605529785
H 8.971549987792969 0.011659610085189342 -5.746165752410889
H 8.305497169494629 3.808062791824341 -3.221435070037842
H 5.238093852996826 2.981950044631958 -4.180508613586426
H 7.76471471786499 2.2354705333709717 0.6726669073104858
