17
Generated by QM7 dataset
C 3.2413148880004883 -1.0176174640655518 -1.8134379386901855
C 5.187770843505859 -0.6902035474777222 0.2708733379840851
N 7.143561840057373 1.0419950485229492 -0.5368900895118713
C 9.03536605834961 1.8388546705245972 0.991690456867218
N 10.037922859191895 0.6553192138671875 2.8518424034118652
O 9.79375171661377 4.179828643798828 0.31072765588760376
C 11.77238941192627 5.275888442993164 1.7952775955200195
H 1.7576342821121216 -2.327481269836426 -1.2144514322280884
H 4.113442420959473 -1.7654765844345093 -3.5343737602233887
H 2.3520288467407227 0.789848804473877 -2.2888741493225098
H 6.011615753173828 -2.5335748195648193 0.7265996932983398
H 4.258970260620117 0.03843703120946884 1.9718347787857056
H 6.535069942474365 2.472177505493164 -1.660918116569519
H 9.219520568847656 -1.084513783454895 2.9829704761505127
H 12.18204402923584 7.147341251373291 1.0203198194503784
H 13.491378784179688 4.132150650024414 1.6785681247711182
H 11.162480354309082 5.505263328552246 3.758211851119995
