11
Generated by QM7 dataset
O 1.8058412075042725 0.19723071157932281 -0.4013400375843048
S 4.527859210968018 -0.023073555901646614 -0.280151903629303
O 6.088414192199707 -0.16038106381893158 -2.520252227783203
O 5.235240459442139 -2.3997254371643066 1.5551501512527466
C 6.340484619140625 -1.6546252965927124 3.892174482345581
C 6.5989990234375 1.1553218364715576 3.8430793285369873
C 5.716667175292969 2.243199348449707 1.7411558628082275
H 8.18532943725586 -2.5657756328582764 4.083641529083252
H 5.110707759857178 -2.257939338684082 5.439652442932129
H 7.432349681854248 2.194387674331665 5.39314603805542
H 5.693669319152832 4.221402645111084 1.2711431980133057
