13
Generated by QM7 dataset
N 1.6351799964904785 0.6188285946846008 0.13029661774635315
N 4.1379899978637695 0.09709412604570389 0.1028766930103302
C 5.548821926116943 2.1037375926971436 0.03257887810468674
C 8.368481636047363 2.07975697517395 0.0
C 9.596501350402832 -0.13541777431964874 -0.03526229038834572
C 9.696959495544434 4.380744457244873 0.0
C 10.821497917175293 6.3285040855407715 0.0
H 0.644150972366333 -1.020357608795166 -0.1340760737657547
H 1.087197184562683 1.2454618215560913 1.8756098747253418
H 4.697537899017334 4.015139102935791 -0.010185623541474342
H 8.585857391357422 -1.9218703508377075 -0.04232986643910408
H 11.644680976867676 -0.22635139524936676 -0.06358928233385086
H 11.833067893981934 8.069262504577637 -0.0025322330184280872
