16
Generated by QM7 dataset
N 5.607063293457031 -1.9052975177764893 -1.0555254220962524
C 4.488364219665527 0.1653510332107544 0.36371558904647827
C 6.286759853363037 2.3428823947906494 0.3348405659198761
C 6.457742214202881 4.04732084274292 -1.9433943033218384
C 5.293330669403076 5.009758472442627 0.46001604199409485
N 6.640894412994385 6.903339862823486 1.9464179277420044
H 4.411868095397949 -3.4117681980133057 -1.0213969945907593
H 7.222609043121338 -2.4810214042663574 -0.18868915736675262
H 4.130903720855713 -0.42464035749435425 2.314328670501709
H 2.6713547706604004 0.6744999289512634 -0.48700132966041565
H 8.02564811706543 1.9162390232086182 1.32991361618042
H 5.215587615966797 3.671964645385742 -3.529536008834839
H 8.308993339538574 4.7264885902404785 -2.4935314655303955
H 3.2527666091918945 5.264039993286133 0.4342779517173767
H 8.549215316772461 6.687022686004639 1.8012113571166992
H 6.224644660949707 6.7285590171813965 3.818777561187744
