15
Generated by QM7 dataset
C 1.501368522644043 -2.0847079753875732 1.1366702318191528
C -0.7129936814308167 -2.8075850009918213 -0.5810719132423401
C -2.8584187030792236 -0.9461103081703186 -0.46861428022384644
C -2.63828444480896 1.5109305381774902 0.09259658306837082
O -0.4630017876625061 2.8704938888549805 0.41470038890838623
C 1.6852200031280518 1.9412400722503662 -0.9322397112846375
O 3.0354104042053223 -0.0733780637383461 0.2268805205821991
H 2.7505152225494385 -3.7227792739868164 1.344861388206482
H 0.8465784192085266 -1.6030735969543457 3.043630599975586
H -1.4426357746124268 -4.63782262802124 0.05960196256637573
H -0.09900274872779846 -3.0316498279571533 -2.545196533203125
H -4.746576309204102 -1.7224664688110352 -0.7212517857551575
H -4.263089656829834 2.7214136123657227 0.39584094285964966
H 3.0143399238586426 3.521580219268799 -1.0696983337402344
H 1.2008453607559204 1.4520277976989746 -2.890676259994507
