16
Generated by QM7 dataset
C 4.67183780670166 -0.6284472942352295 3.257112979888916
C 4.171872615814209 0.5949046611785889 0.7030726075172424
N 5.708881378173828 2.860894203186035 0.31407248973846436
C 4.954257011413574 5.2332563400268555 1.1308687925338745
C 2.8086998462677 5.78921365737915 2.3440730571746826
C 8.059643745422363 2.5371084213256836 -0.831668496131897
O 8.968696594238281 0.5346035361289978 -1.5610461235046387
H 3.5233943462371826 -2.3349266052246094 3.4715213775634766
H 4.211991786956787 0.6569443941116333 4.810940265655518
H 6.662116050720215 -1.1612555980682373 3.4486746788024902
H 2.1653428077697754 1.049667239189148 0.4796124994754791
H 4.607719421386719 -0.7800411581993103 -0.7852568030357361
H 6.264480113983154 6.771228790283203 0.7353491187095642
H 1.3924635648727417 4.39797830581665 2.8412787914276123
H 2.4177911281585693 7.726882457733154 2.8973848819732666
H 9.111087799072266 4.325016021728516 -1.0416548252105713
