16
Generated by QM7 dataset
C 3.5381343364715576 -0.015004425309598446 -1.0060901641845703
C 1.731272578239441 1.5341930389404297 0.5332807302474976
C 1.6546820402145386 -1.3790276050567627 0.6049391031265259
N -1.0985544919967651 -1.9453785419464111 -0.10276331007480621
C -1.8630053997039795 0.014891042374074459 -2.1740732192993164
C -1.0599473714828491 1.9499516487121582 -0.05489654466509819
C -2.6025118827819824 -0.026777420192956924 1.57803475856781
H 3.340015411376953 -0.07974644005298615 -3.040928363800049
H 5.50050163269043 -0.05580361187458038 -0.4092768728733063
H 2.3214340209960938 2.495288848876953 2.236830949783325
H 2.3252134323120117 -2.327877998352051 2.295469284057617
H -3.8632805347442627 -0.029385240748524666 -2.7247016429901123
H -0.7287917733192444 -0.03586700186133385 -3.9007537364959717
H -1.7602988481521606 3.881951093673706 -0.173628032207489
H -2.151623249053955 -0.1087726354598999 3.596602439880371
H -4.662578105926514 -0.0783858373761177 1.3476581573486328
