17
Generated by QM7 dataset
N 1.7984334230422974 1.15887451171875 -1.3021725416183472
C 4.234819412231445 0.44737377762794495 -0.19874249398708344
C 5.947081565856934 2.695127487182617 0.043898336589336395
N 5.157497406005859 5.202472686767578 -0.868310272693634
C 5.310262680053711 4.798468112945557 1.8730210065841675
C 7.3371453285217285 6.099903583526611 3.3576464653015137
O 9.391636848449707 6.790882110595703 1.7619050741195679
H 0.6455682516098022 -0.386411190032959 -1.2916655540466309
H 2.08569073677063 1.5652412176132202 -3.167766809463501
H 5.126014232635498 -0.9846228957176208 -1.4000980854034424
H 3.934561014175415 -0.40031957626342773 1.66433846950531
H 7.920258045196533 2.2048189640045166 -0.19337567687034607
H 3.3022775650024414 5.066714763641357 -1.42322838306427
H 3.534562587738037 4.7132039070129395 2.8893346786499023
H 8.050554275512695 4.8679914474487305 4.856369495391846
H 6.589966297149658 7.8239006996154785 4.223689079284668
H 8.617528915405273 7.053629398345947 0.1012137308716774
