14
Generated by QM7 dataset
C 5.125901222229004 -2.644822835922241 1.7109580039978027
N 6.924901485443115 -0.8910247683525085 0.5712642073631287
N 6.574980735778809 1.5721765756607056 1.1638067960739136
C 8.080411911010742 3.0809149742126465 -0.03870159015059471
C 7.945863723754883 5.879599571228027 0.3744303286075592
C 10.377771377563477 6.7850236892700195 1.3142666816711426
N 12.326078414916992 7.506558895111084 2.025484085083008
H 5.5046586990356445 -4.565540313720703 1.0466437339782715
H 3.18791127204895 -2.1567065715789795 1.177771806716919
H 5.279290199279785 -2.62392258644104 3.7735373973846436
H 8.712488174438477 -1.486420750617981 1.0137624740600586
H 9.482853889465332 2.390749216079712 -1.4281038045883179
H 6.427090644836426 6.326935291290283 1.705005407333374
H 7.503252029418945 6.766674518585205 -1.440991759300232
