14
Generated by QM7 dataset
O 10.299139976501465 0.6503114700317383 -2.0473482608795166
C 9.484989166259766 0.9371907711029053 0.08885492384433746
O 8.54798698425293 3.090514898300171 1.1084944009780884
C 8.473381042480469 5.235939979553223 -0.5560519099235535
C 10.900431632995605 6.678783416748047 -0.36552971601486206
C 12.864972114562988 6.484916687011719 -2.417356491088867
N 11.367005348205566 8.782464027404785 -2.10207462310791
H 9.41266918182373 -0.5681272745132446 1.5227413177490234
H 6.917002201080322 6.433988571166992 0.09875708818435669
H 8.016709327697754 4.668209552764893 -2.49829363822937
H 11.498794555664062 6.968818664550781 1.5697766542434692
H 12.451141357421875 5.362305641174316 -4.079124927520752
H 14.840812683105469 6.591648101806641 -1.8994393348693848
H 12.411399841308594 10.164515495300293 -1.2476916313171387
