20
Generated by QM7 dataset
C 1.8793514966964722 0.06797344982624054 0.14796555042266846
C 4.736598491668701 -0.10308456420898438 -0.014815452508628368
N 6.033215045928955 1.8367382287979126 1.5449645519256592
C 7.96213436126709 -0.06200191378593445 2.2883448600769043
C 10.381229400634766 0.22960172593593597 0.7573644518852234
C 6.0375237464904785 -2.168971061706543 1.59848153591156
C 6.938790798187256 -4.514782428741455 0.22578448057174683
H 1.0076019763946533 -1.5369898080825806 -0.824411928653717
H 1.1933242082595825 1.798093318939209 -0.7562872767448425
H 1.208857774734497 0.057561058551073074 2.107309103012085
H 5.365877151489258 -0.06721755862236023 -1.9925460815429688
H 4.980373382568359 2.4541683197021484 3.0377914905548096
H 8.408392906188965 -0.01568472757935524 4.312997341156006
H 10.028436660766602 0.26939934492111206 -1.2811964750289917
H 11.671024322509766 -1.3406851291656494 1.1468747854232788
H 11.359352111816406 1.9806219339370728 1.2679306268692017
H 4.907618999481201 -2.720865488052368 3.2557334899902344
H 8.00440788269043 -4.053424835205078 -1.4856648445129395
H 5.328007221221924 -5.687602996826172 -0.33281856775283813
H 8.154905319213867 -5.6521897315979 1.452897071838379
