18
Generated by QM7 dataset
O 1.943035364151001 0.043728262186050415 0.27504962682724
C 4.6303391456604 0.04223537817597389 0.05574692040681839
C 5.485629081726074 -2.5033390522003174 -0.9989848136901855
C 4.808899402618408 -2.774231433868408 -3.7939465045928955
N 5.831789493560791 -0.6895988583564758 -5.30529260635376
C 4.826663017272949 1.7279844284057617 -4.410016059875488
C 5.494813442230225 2.2115464210510254 -1.6410003900527954
H 1.4454892873764038 1.647066354751587 1.0224552154541016
H 5.394052982330322 0.2891469895839691 1.9639357328414917
H 4.5970234870910645 -4.048643589019775 0.057466570287942886
H 7.5384955406188965 -2.6895904541015625 -0.7706303000450134
H 5.581192970275879 -4.554901599884033 -4.514990329742432
H 2.754011392593384 -2.8837409019470215 -4.041311740875244
H 7.752676963806152 -0.6805659532546997 -5.158120632171631
H 5.613091468811035 3.247248649597168 -5.576959609985352
H 2.772662878036499 1.7839770317077637 -4.682797908782959
H 7.547944068908691 2.4435670375823975 -1.464707851409912
H 4.613596439361572 3.9868874549865723 -1.039273738861084
