14
Generated by QM7 dataset
C 1.886438012123108 -0.11022772639989853 0.3101796507835388
C 4.6814374923706055 0.2535823583602905 -0.17831455171108246
C 6.077094554901123 2.14748477935791 1.5120832920074463
C 7.827812671661377 -0.07547566294670105 2.143289566040039
O 6.143651008605957 -1.8281588554382324 0.8472965359687805
C 10.315258979797363 -0.018670493736863136 0.9914637207984924
N 12.310583114624023 0.08749432116746902 0.07885827124118805
H 1.1632208824157715 -1.7232979536056519 -0.7644698023796082
H 0.8240906596183777 1.5664695501327515 -0.2717237174510956
H 1.4995732307434082 -0.4519658088684082 2.313950777053833
H 5.094607353210449 0.4867934584617615 -2.196579933166504
H 4.999535083770752 2.8568501472473145 3.12876296043396
H 6.928869724273682 3.7420923709869385 0.5098670125007629
H 7.889871120452881 -0.5100937485694885 4.16779088973999
