13
Generated by QM7 dataset
N 3.983372688293457 -0.9672940969467163 -2.4863693714141846
C 4.678262710571289 -0.17589570581912994 0.06066020950675011
C 5.66029691696167 2.4591195583343506 0.03575361892580986
C 4.343308925628662 4.705890655517578 -0.15917162597179413
N 5.783393383026123 6.885254859924316 -0.09038560092449188
C 8.179433822631836 6.2657647132873535 0.12523214519023895
S 8.832995414733887 3.096202850341797 0.278318852186203
H 3.4477298259735107 -2.815805435180664 -2.4472708702087402
H 5.545193672180176 -0.8845618963241577 -3.6130619049072266
H 6.074373245239258 -1.4937529563903809 0.835164487361908
H 3.0071589946746826 -0.28054875135421753 1.2778894901275635
H 2.3104357719421387 4.857560157775879 -0.35787633061408997
H 9.663984298706055 7.6694536209106445 0.20507307350635529
