15
Generated by QM7 dataset
C 5.456735610961914 -2.1937642097473145 -0.9034214019775391
N 4.430406093597412 0.12268102169036865 0.1746106892824173
C 6.346475124359131 2.126225471496582 0.35022294521331787
C 6.733490943908691 3.8783037662506104 -1.849796175956726
C 5.501522064208984 4.841686248779297 0.511019766330719
O 7.035412788391113 6.459764003753662 2.0563433170318604
H 3.965212345123291 -3.621244430541992 -1.026631474494934
H 6.982254505157471 -2.9577994346618652 0.2670938968658447
H 6.175795078277588 -1.8711501359939575 -2.816523313522339
H 3.728732109069824 -0.2605554461479187 1.9294859170913696
H 8.009244918823242 1.644609808921814 1.4617031812667847
H 5.555889129638672 3.6285953521728516 -3.505347490310669
H 8.648785591125488 4.471602439880371 -2.2600369453430176
H 3.4846928119659424 5.210882186889648 0.44986820220947266
H 6.838578701019287 8.216207504272461 1.5523722171783447
