15
Generated by QM7 dataset
C 4.832672119140625 -1.9907509088516235 0.7542842030525208
N 4.646137237548828 0.3118993043899536 -0.700332522392273
C 6.395607948303223 2.2290830612182617 -0.7245587706565857
S 5.8516316413879395 4.681777477264404 -2.651172399520874
N 8.429954528808594 1.8521394729614258 0.8933680057525635
C 10.99302864074707 2.4133691787719727 0.22329004108905792
C 9.673168182373047 3.8457627296447754 2.243539571762085
H 3.1143252849578857 -3.094766616821289 0.46011051535606384
H 5.039181709289551 -1.530508041381836 2.756789207458496
H 6.476715087890625 -3.0635673999786377 0.11368592083454132
H 3.171187162399292 0.5274981260299683 -1.9027652740478516
H 11.2892427444458 3.2821707725524902 -1.6027145385742188
H 12.304516792297363 0.9342994689941406 0.7438529133796692
H 10.046615600585938 3.386861562728882 4.1981401443481445
H 9.03298568725586 5.748830318450928 1.8706021308898926
