12
Generated by QM7 dataset
C 1.72957181930542 -0.04248104244470596 0.07111039757728577
C 3.9991140365600586 -0.012831240892410278 0.04015668109059334
C 6.731790065765381 0.023980624973773956 -0.014418610371649265
C 8.042107582092285 1.9203964471817017 1.7450486421585083
O 9.728291511535645 -0.029498625546693802 2.6884188652038574
C 8.092071533203125 -1.953447699546814 1.61299467086792
H -0.2843470871448517 -0.06844588369131088 0.096073679625988
H 7.48851203918457 0.099512979388237 -1.9436967372894287
H 6.904170989990234 2.7152719497680664 3.2802810668945312
H 9.0768461227417 3.4343693256378174 0.7915684580802917
H 9.164718627929688 -3.37174391746521 0.5595479011535645
H 6.976377487182617 -2.880112648010254 3.0895133018493652
