17
Generated by QM7 dataset
C 1.998328685760498 0.2057344913482666 0.13033440709114075
C 4.511343002319336 0.02834589220583439 -0.062190886586904526
C 5.931453704833984 -2.4330413341522217 -0.060509029775857925
C 7.845273494720459 -2.512693166732788 -2.2130770683288574
C 9.395094871520996 -0.0834880992770195 -2.260925054550171
C 7.637422561645508 2.1995656490325928 -2.2792930603027344
O 5.955774307250977 2.205650568008423 -0.156828373670578
H 1.0844382047653198 2.0412065982818604 0.17137926816940308
H 0.8072910308837891 -1.456298589706421 0.2596105635166168
H 4.6485371589660645 -4.051723957061768 -0.21308551728725433
H 6.925543785095215 -2.6158533096313477 1.7496784925460815
H 9.0919828414917 -4.152011871337891 -1.9995192289352417
H 6.852316856384277 -2.7339234352111816 -4.020770072937012
H 10.591593742370605 -0.0168563574552536 -0.5709618330001831
H 10.634528160095215 -0.052742257714271545 -3.916759729385376
H 8.756631851196289 3.9377734661102295 -2.183786392211914
H 6.5279645919799805 2.279576539993286 -4.030256748199463
