15
Generated by QM7 dataset
O 1.8025342226028442 1.2725226879119873 1.6757901906967163
C 3.72334623336792 0.7125023603439331 -0.11094582080841064
C 5.886534690856934 2.4506912231445312 0.3491457998752594
C 7.198722839355469 3.7780728340148926 -1.8023451566696167
C 5.546554088592529 5.2684807777404785 -0.015042220242321491
C 6.649908542633057 7.028553009033203 1.8673895597457886
O 8.894392967224121 6.975149154663086 2.438521385192871
H 0.4661009609699249 0.03819136694073677 1.4185795783996582
H 2.9367477893829346 0.937663197517395 -2.011159896850586
H 4.317419528961182 -1.2533797025680542 0.13449181616306305
H 7.024905681610107 1.8345082998275757 1.9396148920059204
H 6.518081188201904 3.4919116497039795 -3.7122914791107178
H 9.231898307800293 4.019088268280029 -1.6742217540740967
H 3.724914789199829 5.883397579193115 -0.7311728596687317
H 5.328933238983154 8.382144927978516 2.7402162551879883
