17
Generated by QM7 dataset
C 0.9661225080490112 0.5013254284858704 0.44157230854034424
C 3.7111575603485107 -0.09597919136285782 0.2730087339878082
C 4.7726545333862305 -1.3983027935028076 -2.0193991661071777
C 5.372226715087891 1.3438409566879272 -1.5392385721206665
N 7.946298599243164 2.0409419536590576 -0.7578368782997131
N 7.754566669464111 4.323126316070557 0.37650904059410095
C 9.586580276489258 4.741474151611328 1.932849645614624
H 0.6635395288467407 2.096802234649658 1.7220696210861206
H -0.07103480398654938 -1.1266357898712158 1.1845558881759644
H 0.1593228131532669 0.9917093515396118 -1.3998335599899292
H 4.495053768157959 -0.5796923637390137 2.1029818058013916
H 3.5113000869750977 -1.838401198387146 -3.5706942081451416
H 6.247774600982666 -2.787742853164673 -1.7209546566009521
H 4.459621429443359 2.700361967086792 -2.7875540256500244
H 9.056815147399902 2.1726748943328857 -2.3369297981262207
H 9.651946067810059 6.538301467895508 2.980400562286377
H 11.124704360961914 3.380852222442627 2.304180860519409
