15
Generated by QM7 dataset
C 1.2077428102493286 -0.2623317837715149 0.517388105392456
C 3.8207995891571045 0.18704509735107422 -0.453647643327713
C 4.947378635406494 2.4291296005249023 -0.8314794898033142
C 3.8527169227600098 4.960852146148682 -0.16249755024909973
O 7.466062068939209 2.431283950805664 -1.734749674797058
C 7.893631935119629 3.7826647758483887 -3.894083023071289
O 6.379091739654541 4.963724613189697 -5.172067165374756
H 0.18587346374988556 -1.4963607788085938 -0.7914739847183228
H 0.10501208156347275 1.4716620445251465 0.7221588492393494
H 1.293007254600525 -1.203925609588623 2.356394052505493
H 4.873093605041504 -1.5162028074264526 -0.9272508025169373
H 2.5522642135620117 4.841251373291016 1.4401414394378662
H 2.835042715072632 5.76784086227417 -1.770503282546997
H 5.352422714233398 6.274703502655029 0.3928173780441284
H 9.91970157623291 3.6327149868011475 -4.349091529846191
