19
Generated by QM7 dataset
C 4.557830333709717 -0.9707711935043335 2.777613878250122
C 4.20320463180542 0.1921851485967636 0.16994306445121765
C 5.518567085266113 2.7262134552001953 -0.09730199724435806
C 4.147004127502441 4.833182334899902 -0.4613010585308075
C 8.299015998840332 2.7638189792633057 0.1341138631105423
C 9.905585289001465 1.0100018978118896 -1.4314864873886108
C 9.849422454833984 3.7756729125976562 -2.0368223190307617
H 3.5206353664398193 -2.7569591999053955 2.904414653778076
H 3.8483705520629883 0.28704941272735596 4.2606520652771
H 6.550622463226318 -1.3715821504592896 3.166935443878174
H 2.1704070568084717 0.39003947377204895 -0.18424829840660095
H 4.905067443847656 -1.1147116422653198 -1.2734675407409668
H 2.101186513900757 4.7874321937561035 -0.5991187691688538
H 5.052428245544434 6.667766571044922 -0.6236473917961121
H 8.96822452545166 3.1914072036743164 2.0273358821868896
H 9.01864242553711 -0.2639569342136383 -2.767749547958374
H 11.60153865814209 0.24999186396598816 -0.5663320422172546
H 11.504331588745117 4.894484996795654 -1.5868030786514282
H 8.900288581848145 4.3480329513549805 -3.7595913410186768
