15
Generated by QM7 dataset
C 0.44043847918510437 1.4686951637268066 -0.3954252004623413
C -1.622859001159668 -0.453874409198761 -0.126479372382164
C 1.099990725517273 -1.2547025680541992 0.1096797063946724
N 2.0809285640716553 -1.914481520652771 2.6263036727905273
C 1.8356800079345703 -4.6250481605529785 3.07649302482605
C 4.3578972816467285 -3.4600696563720703 2.472593307495117
H 0.8285126090049744 2.215174674987793 -2.2616052627563477
H 0.6923389434814453 2.8223249912261963 1.1211178302764893
H -2.640174150466919 -1.0189781188964844 -1.8101497888565063
H -2.766596794128418 -0.40020620822906494 1.571609616279602
H 1.8659155368804932 -2.288552761077881 -1.4971166849136353
H 0.914192795753479 -5.777308464050293 1.6580835580825806
H 1.4613441228866577 -5.164319038391113 5.014785289764404
H 5.694009304046631 -3.2175989151000977 4.004121780395508
H 5.200790882110596 -3.820194721221924 0.6444721817970276
