21
Generated by QM7 dataset
C 5.646331787109375 -1.895206332206726 -1.6330068111419678
C 4.694986820220947 -0.16047553718090057 0.45604759454727173
C 5.70119047164917 2.5619394779205322 0.256227970123291
C 4.455445289611816 4.215109825134277 2.282562494277954
C 8.603204727172852 2.778747797012329 0.3567425012588501
C 9.838349342346191 1.7394740581512451 2.744297981262207
O 12.501974105834961 2.090282678604126 2.604647397994995
H 4.731893062591553 -3.745267152786255 -1.4877814054489136
H 7.686309814453125 -2.1964476108551025 -1.5035794973373413
H 5.213395118713379 -1.1139557361602783 -3.4990735054016113
H 5.171575546264648 -0.9825819730758667 2.2960362434387207
H 2.624376058578491 -0.11854252219200134 0.35878339409828186
H 5.10849666595459 3.318359136581421 -1.58334481716156
H 4.81868839263916 3.4982988834381104 4.187784194946289
H 2.403278112411499 4.267700672149658 2.013730049133301
H 5.149957180023193 6.161338806152344 2.177739381790161
H 9.145594596862793 4.770859241485596 0.14537663757801056
H 9.432228088378906 1.840479850769043 -1.2961442470550537
H 9.474349975585938 -0.27969837188720703 2.9881484508514404
H 9.171785354614258 2.732128143310547 4.430217266082764
H 13.105666160583496 1.1533187627792358 1.143548846244812
