15
Generated by QM7 dataset
O 2.551546096801758 0.26679152250289917 1.6053601503372192
C 4.53779935836792 0.11616146564483643 0.40695253014564514
C 5.860342979431152 -2.418773889541626 -0.09374931454658508
N 7.5521392822265625 -2.397533416748047 -2.320319175720215
C 9.251683235168457 -0.21268866956233978 -2.2032127380371094
C 7.71151876449585 2.237057685852051 -2.24658203125
N 5.7726030349731445 2.280275821685791 -0.31940150260925293
H 4.400907516479492 -3.852055549621582 -0.40277624130249023
H 6.929323196411133 -2.922140121459961 1.6072120666503906
H 8.582928657531738 -4.0240960121154785 -2.31961989402771
H 10.414941787719727 -0.3084977865219116 -0.49028944969177246
H 10.53361701965332 -0.24904701113700867 -3.827054500579834
H 8.934587478637695 3.8775291442871094 -1.9478163719177246
H 6.761817932128906 2.4612927436828613 -4.073569297790527
H 4.764056205749512 3.8798534870147705 -0.03418514505028725
