15
Generated by QM7 dataset
C 5.3411784172058105 -3.0964674949645996 -0.40604546666145325
C 6.897008895874023 -1.3024559020996094 0.46152782440185547
C 6.457420825958252 1.3614721298217773 0.06893721222877502
C 8.042409896850586 3.1568820476531982 0.8961459398269653
N 7.746856689453125 5.72023868560791 0.6268221735954285
C 9.3038969039917 7.649535655975342 1.3441054821014404
N 11.530466079711914 7.571962356567383 2.3096044063568115
H 5.745409965515137 -5.078279972076416 -0.06060351803898811
H 3.645810842514038 -2.657616376876831 -1.473343849182129
H 8.57107925415039 -1.8609833717346191 1.5181682109832764
H 4.753662586212158 1.892693042755127 -0.9481133818626404
H 9.749664306640625 2.626511573791504 1.9075273275375366
H 6.103890895843506 6.241160869598389 -0.21737520396709442
H 8.437098503112793 9.51486587524414 0.9959801435470581
H 12.100105285644531 5.737510681152344 2.492586612701416
