19
Generated by QM7 dataset
C 1.3003582954406738 5.337285995483398 0.632415771484375
C 3.8400936126708984 3.9986605644226074 0.745307981967926
N 5.887479782104492 5.785585403442383 0.2302631288766861
N 8.236617088317871 4.7764716148376465 0.2167137861251831
C 10.096296310424805 6.30450439453125 -0.29311540722846985
C 9.820150375366211 9.085973739624023 -0.8720707893371582
C 12.737982749938965 5.233558654785156 -0.2818337678909302
H -0.2259356528520584 4.001835346221924 1.0373084545135498
H 0.9642138481140137 6.142063617706299 -1.2431185245513916
H 1.194439172744751 6.865167140960693 2.023669958114624
H 3.870140314102173 2.4685304164886475 -0.6504248380661011
H 4.094091892242432 3.1562206745147705 2.6211256980895996
H 5.7502665519714355 7.265581130981445 1.462761402130127
H 8.504598617553711 9.356677055358887 -2.442641019821167
H 11.647724151611328 9.891865730285645 -1.4022334814071655
H 9.125487327575684 10.078268051147461 0.801395058631897
H 12.70544147491455 3.2035393714904785 0.09690515697002411
H 13.847704887390137 6.178534984588623 1.1824960708618164
H 13.617101669311523 5.562805652618408 -2.122389316558838
