11
Generated by QM7 dataset
N 1.8051986694335938 -0.09960746765136719 -0.25173041224479675
C 4.214561939239502 -0.12933285534381866 0.026493960991501808
O 5.500898361206055 2.112165689468384 0.09322018921375275
C 8.118376731872559 2.032287120819092 0.4050061106681824
C 9.431925773620605 -0.09599808603525162 0.6383683681488037
C 7.853645324707031 -2.360910415649414 0.5322035551071167
N 5.439274311065674 -2.382396697998047 0.24916039407253265
H 1.2879806756973267 1.7578043937683105 -0.37828537821769714
H 8.906676292419434 3.9165329933166504 0.42974263429641724
H 11.452533721923828 -0.21660040318965912 0.8825588226318359
H 8.869543075561523 -4.170285224914551 0.7146944403648376
