17
Generated by QM7 dataset
C 1.7990003824234009 -0.0834880992770195 0.10491759330034256
C 4.690753936767578 -0.07470087707042694 -0.09042339771986008
C 5.498347282409668 -1.5855557918548584 -2.425274610519409
C 5.734241485595703 2.6503031253814697 -0.14146490395069122
O 4.796483993530273 4.0221686363220215 1.9800550937652588
C 8.514898300170898 2.715914487838745 -0.055123310536146164
C 10.783419609069824 2.785871982574463 0.025435714051127434
H 1.1607264280319214 0.8220875859260559 1.8518749475479126
H 1.0697550773620605 -2.020721912384033 0.1130056232213974
H 0.9396096467971802 0.9164983034133911 -1.4905403852462769
H 5.416106224060059 -1.045717716217041 1.5952311754226685
H 4.852627754211426 -0.6718165278434753 -4.1667704582214355
H 4.700334548950195 -3.4950296878814697 -2.3743653297424316
H 7.554633617401123 -1.782956600189209 -2.5265071392059326
H 5.064919471740723 3.6274805068969727 -1.8401397466659546
H 5.6222944259643555 3.3276753425598145 3.467137336730957
H 12.792879104614258 2.8580217361450195 0.09289893507957458
