14
Generated by QM7 dataset
C 1.17588210105896 1.9134232997894287 3.4246373176574707
C 1.9460021257400513 0.5134007930755615 1.4609094858169556
C 4.6152215003967285 0.3581975996494293 0.5201092958450317
O 5.216532230377197 -2.256899833679199 0.22922377288341522
C 7.537966251373291 -2.8579461574554443 -0.7172077298164368
C 9.449575424194336 -1.3354127407073975 -1.3709207773208618
H -0.7937605381011963 1.9136312007904053 3.9984147548675537
H 2.4768829345703125 3.080688238143921 4.500080585479736
H 0.5682595372200012 -0.6241954565048218 0.44661787152290344
H 5.926370143890381 1.246123194694519 1.856958270072937
H 4.725713729858398 1.3156083822250366 -1.3152304887771606
H 7.677711486816406 -4.897092819213867 -0.8957490921020508
H 9.371113777160645 0.7017120122909546 -1.2010910511016846
H 11.185912132263184 -2.1427037715911865 -2.1029818058013916
