17
Generated by QM7 dataset
C 1.7147753238677979 -0.14290109276771545 0.6842131614685059
C 4.4717912673950195 0.1560157835483551 -0.027212055400013924
O 5.640567779541016 2.1949925422668457 1.401836633682251
C 7.819365501403809 0.6032194495201111 1.8956599235534668
C 6.347438812255859 -1.77388596534729 1.1095149517059326
C 7.613668918609619 -3.492913007736206 -0.7114629745483398
C 9.528679847717285 -4.959189414978027 0.0463927760720253
H 0.9101865887641907 -1.8230187892913818 -0.21569333970546722
H 0.6195845007896423 1.4978158473968506 0.059564169496297836
H 1.4708116054534912 -0.33115559816360474 2.7307677268981934
H 4.698671817779541 0.5069568157196045 -2.0597259998321533
H 9.419698715209961 1.1532998085021973 0.7028458118438721
H 8.380972862243652 0.6672812104225159 3.8835573196411133
H 5.568342685699463 -2.8056952953338623 2.7323739528656006
H 6.9571967124938965 -3.5660831928253174 -2.6554620265960693
H 10.222757339477539 -4.940802574157715 1.9786944389343262
H 10.456666946411133 -6.23023796081543 -1.2727683782577515
