19
Generated by QM7 dataset
C 2.144782543182373 -1.5318119525909424 0.02639947459101677
C 4.744195461273193 -0.45489487051963806 -0.23232293128967285
C 5.445359230041504 1.9880863428115845 0.00788015779107809
C 3.651385545730591 4.132018566131592 0.5357184410095215
N 3.523564338684082 4.616487503051758 3.2485904693603516
C 8.182929992675781 2.737419366836548 -0.252826452255249
N 8.654378890991211 3.7927749156951904 -2.7558064460754395
H 2.1820666790008545 -3.106482982635498 1.3673491477966309
H 1.5012551546096802 -2.2570509910583496 -1.8000019788742065
H 0.7547566294670105 -0.17071786522865295 0.7140707969665527
H 6.19790506362915 -1.854709506034851 -0.6404659748077393
H 1.7550832033157349 3.7359886169433594 -0.1896529197692871
H 4.27437162399292 5.850780963897705 -0.4369613826274872
H 2.7989490032196045 3.0552902221679688 4.108397006988525
H 2.259469985961914 6.033725261688232 3.5588834285736084
H 9.432586669921875 1.1101573705673218 0.03949527442455292
H 8.685917854309082 4.1270294189453125 1.197821855545044
H 8.339720726013184 2.416487216949463 -4.063931465148926
H 10.519500732421875 4.242321968078613 -2.8920369148254395
