14
Generated by QM7 dataset
C 10.193843841552734 -3.304091691970825 -0.9771584868431091
C 8.636691093444824 -1.7860935926437378 -0.3364657461643219
C 6.715765476226807 0.055520154535770416 0.4478839933872223
C 8.071776390075684 2.5403966903686523 0.462113618850708
C 8.311809539794922 4.1016693115234375 -1.9128752946853638
C 6.591402530670166 4.960984706878662 0.17769095301628113
H 11.581205368041992 -4.649500846862793 -1.5489518642425537
H 6.004850387573242 -0.37726491689682007 2.341276168823242
H 5.114921569824219 0.05381939932703972 -0.8633402585983276
H 9.629647254943848 2.572144031524658 1.798112154006958
H 7.457558631896973 3.400240898132324 -3.6379494667053223
H 10.062206268310547 5.125466346740723 -2.2055749893188477
H 7.174647808074951 6.577154159545898 1.2942733764648438
H 4.570775032043457 4.853440284729004 -0.14288219809532166
