12
Generated by QM7 dataset
C 1.889726161956787 0.0 0.0
C 4.618490695953369 0.0 0.0
C 6.86756706237793 0.0 0.0
C 9.569308280944824 -0.032862339168787 0.0370953232049942
C 10.981614112854004 -1.4088664054870605 -2.009610414505005
O 10.69577407836914 1.2837098836898804 -2.0474047660827637
H 1.145060658454895 1.9291269779205322 0.02199641242623329
H 1.1450228691101074 -0.9836780428886414 1.6596142053604126
H 1.1451740264892578 -0.9454866647720337 -1.6817617416381836
H 10.476887702941895 0.1568472683429718 1.8628730773925781
H 9.927260398864746 -2.4898085594177246 -3.390395402908325
H 12.832998275756836 -2.157651424407959 -1.5706459283828735
