12
Generated by QM7 dataset
O 1.7713537216186523 -0.3298894762992859 -0.6760306358337402
C 3.9423465728759766 0.1626865267753601 -0.21952947974205017
C 6.417944431304932 -1.0794304609298706 1.0391225814819336
N 6.606992721557617 1.5565296411514282 2.206538677215576
C 5.933305263519287 2.4512016773223877 -0.4546492099761963
C 8.034832000732422 1.3766088485717773 -1.96178138256073
C 8.354101181030273 -0.9410269260406494 -0.9809190630912781
H 6.286854267120361 -2.685943365097046 2.30448317527771
H 5.249904632568359 1.9293347597122192 3.5282888412475586
H 5.312719345092773 4.390154838562012 -0.6918476223945618
H 9.068700790405273 2.271620988845825 -3.4707655906677246
H 9.707277297973633 -2.3689796924591064 -1.50594162940979
