16
Generated by QM7 dataset
C 3.3329100608825684 -0.6282583475112915 0.7485394477844238
N 1.4070522785186768 -2.577454090118408 1.2140734195709229
C -0.2007834017276764 -1.5145587921142578 -0.7928345799446106
C -2.737438440322876 -0.9080700874328613 0.16151489317417145
C -2.819887161254883 1.4827358722686768 0.9913503527641296
C -0.3430986702442169 2.835552930831909 0.7380703091621399
C 1.3510218858718872 0.9573730826377869 -0.6784494519233704
H 4.89049768447876 -1.281309962272644 -0.4518902003765106
H 4.126519203186035 0.23296543955802917 2.451409339904785
H 1.9902595281600952 -4.382142543792725 0.9002277255058289
H -0.1407656967639923 -2.528925895690918 -2.593592405319214
H -4.297898769378662 -2.223432779312134 0.19258199632167816
H -4.481164455413818 2.3549766540527344 1.8003798723220825
H 0.42394116520881653 3.3219118118286133 2.5967483520507812
H -0.5902559757232666 4.5712666511535645 -0.3592747449874878
H 1.9904296398162842 1.6780389547348022 -2.5119941234588623
