23
Generated by QM7 dataset
C 1.906941533088684 -1.5941919088363647 2.4529967308044434
C 4.398242950439453 -0.721648633480072 3.597301483154297
C 5.201112270355225 1.9727228879928589 2.8050715923309326
C 3.1835460662841797 4.002326488494873 3.371857166290283
C 2.5158302783966064 4.316455841064453 6.152740478515625
C 7.8064775466918945 2.5594639778137207 3.9843363761901855
C 8.918770790100098 5.085498809814453 3.176553964614868
H 1.5938328504562378 -3.593125343322754 2.886556625366211
H 1.9146326780319214 -1.377081274986267 0.39924243092536926
H 0.3087056577205658 -0.5375893115997314 3.223438262939453
H 5.873098850250244 -2.0545291900634766 3.0014331340789795
H 4.287429332733154 -0.8668929934501648 5.661902904510498
H 5.4539384841918945 1.9506319761276245 0.7434560656547546
H 1.4507994651794434 3.565894365310669 2.321150541305542
H 3.8120877742767334 5.831203460693359 2.6302154064178467
H 1.744973063468933 2.5748085975646973 6.951414108276367
H 1.078050971031189 5.789459705352783 6.364994525909424
H 4.159117221832275 4.883505821228027 7.269134044647217
H 9.13977336883545 1.0721361637115479 3.4272639751434326
H 7.697421550750732 2.494570732116699 6.05233907699585
H 8.975972175598145 5.248884201049805 1.115505337715149
H 10.855512619018555 5.263945579528809 3.885314702987671
H 7.8352203369140625 6.672887325286865 3.935657024383545
