16
Generated by QM7 dataset
C 1.8102819919586182 1.0306565761566162 -2.1503193378448486
N 4.264412879943848 1.1203430891036987 -0.9536880850791931
C 5.777610778808594 3.2269153594970703 -0.5459418892860413
C 4.70649528503418 5.745145320892334 -1.3726593255996704
C 8.060267448425293 2.947821617126465 0.5455261468887329
C 9.918700218200684 4.960890293121338 1.0837390422821045
O 11.923982620239258 4.48333740234375 2.1468610763549805
H 1.149180293083191 -0.9267972707748413 -2.242745876312256
H 1.9005542993545532 1.7653065919876099 -4.081090450286865
H 0.423544317483902 2.118741989135742 -1.0694149732589722
H 4.999156951904297 -0.5788609385490417 -0.43403229117393494
H 2.8318490982055664 6.035482883453369 -0.5439009666442871
H 4.527500152587891 5.798605918884277 -3.433764696121216
H 5.843902587890625 7.369175910949707 -0.8085193037986755
H 8.716872215270996 1.0899940729141235 1.1186611652374268
H 9.44719409942627 6.8898468017578125 0.48467695713043213
