20
Generated by QM7 dataset
C 1.1277697086334229 0.5787853002548218 1.0847972631454468
C 3.6384031772613525 -0.6881626844406128 0.4984341561794281
C 5.707804203033447 1.2568567991256714 -0.03112378902733326
C 8.238601684570312 -0.024339672178030014 -0.5861741304397583
C 10.303391456604004 1.9204342365264893 -1.129546046257019
C 12.827139854431152 0.6549790501594543 -1.663525938987732
H -0.32616671919822693 -0.8465595245361328 1.4477570056915283
H 0.49883100390434265 1.7488470077514648 -0.5007585287094116
H 1.2790800333023071 1.7821629047393799 2.7606630325317383
H 3.4063825607299805 -1.9315457344055176 -1.1423394680023193
H 4.187009334564209 -1.8824129104614258 2.100033760070801
H 5.9114789962768555 2.516416072845459 1.6023365259170532
H 5.155399799346924 2.4344584941864014 -1.6448553800582886
H 8.033830642700195 -1.292818307876587 -2.2126235961914062
H 8.793803215026855 -1.1930596828460693 1.0332077741622925
H 10.512962341308594 3.196604013442993 0.48847532272338867
H 9.766426086425781 3.079894542694092 -2.7599072456359863
H 13.450541496276855 -0.4687087833881378 -0.04227317497134209
H 14.275274276733398 2.080059289932251 -2.0513923168182373
H 12.697882652282715 -0.5932984352111816 -3.30823016166687
