14
Generated by QM7 dataset
C 1.724904179573059 0.039929911494255066 0.08966750651597977
C 4.585042476654053 -0.03822916001081467 0.011943069286644459
C 5.9844794273376465 1.826854944229126 1.7329167127609253
O 7.5949225425720215 -0.17481856048107147 2.686434745788574
C 5.8861188888549805 -2.074749231338501 1.6429468393325806
C 7.2399187088012695 -4.024909019470215 0.27540868520736694
N 8.264566421508789 -5.606987476348877 -0.8501688838005066
H 0.9269295930862427 -1.5754457712173462 -0.9269673824310303
H 1.0204521417617798 1.7655144929885864 -0.8079712986946106
H 1.0075263977050781 -0.008976198732852936 2.0299060344696045
H 5.2786664962768555 0.038418132811784744 -1.9427707195281982
H 4.88080358505249 2.6800851821899414 3.260023355484009
H 7.068482875823975 3.286573886871338 0.7519220113754272
H 4.699862480163574 -2.842318296432495 3.160944938659668
