17
Generated by QM7 dataset
C 2.0522992610931396 -0.5443922877311707 0.16733524203300476
C 4.925797939300537 -0.4883052408695221 0.13638153672218323
N 5.81635046005249 2.1310064792633057 0.1685824692249298
C 8.589069366455078 2.2332026958465576 0.146661639213562
C 9.520610809326172 4.9706220626831055 0.06871043890714645
C 12.293745994567871 5.04794979095459 0.04763999581336975
N 14.486489295959473 5.099615097045898 0.0438227504491806
H 1.3786875009536743 -2.5003533363342285 0.12218969315290451
H 1.2671180963516235 0.43724483251571655 -1.477368950843811
H 1.3012275695800781 0.34793636202812195 1.8763279914855957
H 5.597236633300781 -1.4532183408737183 -1.5680569410324097
H 5.64143705368042 -1.517242193222046 1.7863203287124634
H 5.133535385131836 3.0105605125427246 1.7435369491577148
H 9.311511993408203 1.2232763767242432 -1.5156170129776
H 9.343656539916992 1.2838988304138184 1.8281021118164062
H 8.81438159942627 6.007893085479736 1.718630313873291
H 8.785355567932129 5.925708770751953 -1.6150922775268555
