20
Generated by QM7 dataset
C 1.7894573211669922 -0.03921181708574295 0.43123549222946167
C 4.618282794952393 -0.014116254635155201 -0.1468317210674286
C 5.100956439971924 0.03409066051244736 -2.993741989135742
C 6.101755619049072 2.0250115394592285 1.3643255233764648
C 7.803094863891602 -0.04172515124082565 2.4935691356658936
N 10.256242752075195 0.0016818562289699912 1.2224260568618774
C 6.125906467437744 -2.086484432220459 1.2912687063217163
H 1.4281227588653564 -0.07409615814685822 2.4693996906280518
H 0.8831257224082947 -1.7060636281967163 -0.3957086503505707
H 0.8644363284111023 1.6430034637451172 -0.34187036752700806
H 7.117918014526367 0.04444636031985283 -3.442155122756958
H 4.263108730316162 1.7209924459457397 -3.8517532348632812
H 4.269344806671143 -1.6267896890640259 -3.9068009853363037
H 4.970924377441406 2.997786045074463 2.803616523742676
H 7.031595230102539 3.485750913619995 0.22831670939922333
H 7.91313362121582 -0.07362373173236847 4.556356430053711
H 10.186511993408203 0.163706973195076 -0.6946255564689636
H 11.339396476745605 -1.5497076511383057 1.5829291343688965
H 7.074284076690674 -3.494387149810791 0.10550341010093689
H 5.007490634918213 -3.1226401329040527 2.695505380630493
