14
Generated by QM7 dataset
C 5.298263072967529 1.500026822090149 3.8814785480499268
N 6.96914005279541 2.968759775161743 2.8848936557769775
O 7.377623081207275 2.2150802612304688 0.3785688281059265
C 9.370924949645996 3.7031450271606445 -0.6827013492584229
C 8.523818016052246 6.402486801147461 -1.1658098697662354
C 6.461238384246826 6.411595344543457 -3.1146843433380127
O 6.62177038192749 7.5551438331604 -5.1257500648498535
H 4.708668231964111 1.7874919176101685 5.857055187225342
H 4.40156888961792 -0.06973089277744293 2.8434898853302
H 9.92935848236084 2.7920703887939453 -2.4556424617767334
H 11.010697364807129 3.6604185104370117 0.5824891924858093
H 10.107880592346191 7.537304878234863 -1.8612101078033447
H 7.770913124084473 7.295797824859619 0.5405561327934265
H 4.725789546966553 5.367521286010742 -2.6164770126342773
