15
Generated by QM7 dataset
C 4.526574611663818 -0.9370774030685425 -2.659090280532837
C 4.667132377624512 0.1611180454492569 -0.012472192756831646
N 5.600052356719971 2.737098217010498 -0.010317904874682426
C 4.184571743011475 4.894900798797607 0.04654395580291748
C 5.880789756774902 6.863938808441162 0.0346008837223053
C 8.267986297607422 5.696711540222168 -0.02530343271791935
N 8.105469703674316 3.1773476600646973 -0.04960530996322632
H 3.805454969406128 -2.874046564102173 -2.5957279205322266
H 6.391998767852783 -0.9714515209197998 -3.5543670654296875
H 3.2698497772216797 0.18232077360153198 -3.8636772632598877
H 5.926918029785156 -0.9630044102668762 1.1857653856277466
H 2.793808937072754 0.16828010976314545 0.8681023716926575
H 2.143950939178467 4.84960412979126 0.08539672195911407
H 5.456508636474609 8.8607177734375 0.06561128795146942
H 10.115779876708984 6.571711540222168 -0.05109819397330284
