15
Generated by QM7 dataset
C 9.333735466003418 -1.511232852935791 -0.45589643716812134
O 6.660245418548584 -1.307236909866333 -0.6668465733528137
C 5.613809585571289 0.9868149757385254 -0.10251764208078384
C 6.744338035583496 3.123849630355835 0.6345133185386658
O 5.377763748168945 5.277646064758301 1.1204564571380615
C 6.617953300476074 7.430100917816162 1.8563724756240845
C 5.3827714920043945 9.574278831481934 2.335928201675415
H 9.869397163391113 -3.437941074371338 -0.9793883562088013
H 9.947574615478516 -1.1828173398971558 1.4923545122146606
H 10.280204772949219 -0.2091359943151474 -1.7558579444885254
H 3.5805017948150635 0.8782880306243896 -0.34049084782600403
H 8.75835132598877 3.313181161880493 0.893764853477478
H 8.648029327392578 7.278317928314209 2.021005392074585
H 3.342604160308838 9.676172256469727 2.1554973125457764
H 6.386234760284424 11.264071464538574 2.9158284664154053
