14
Generated by QM7 dataset
C 0.7514117956161499 2.794980525970459 1.0156899690628052
C 1.682687759399414 0.7922487854957581 -0.7847276926040649
C 1.8304643630981445 -1.970644235610962 -0.04166845977306366
C -0.8734314441680908 -2.7538411617279053 0.4081997275352478
C -2.4163928031921387 -0.7737672924995422 0.015439062379300594
C -1.0864224433898926 1.5417708158493042 -0.7493708729743958
H 1.2650015354156494 4.740567207336426 0.628749668598175
H 0.6569443941116333 2.3520476818084717 3.0142455101013184
H 2.845738649368286 1.3177627325057983 -2.3766329288482666
H 2.9673802852630615 -2.2150614261627197 1.668099045753479
H 2.652306318283081 -3.092158794403076 -1.5728001594543457
H -1.4561095237731934 -4.623044967651367 0.9764403700828552
H -4.4513630867004395 -0.841249406337738 0.22659705579280853
H -1.8332233428955078 2.579627275466919 -2.346491813659668
