15
Generated by QM7 dataset
O 2.58382248878479 0.32688483595848083 1.649730920791626
C 4.553427219390869 0.1257045865058899 0.4311599135398865
C 5.771601676940918 -2.4121599197387695 -0.06215309351682663
C 7.5494561195373535 -2.3819429874420166 -2.315897226333618
C 9.279480934143066 -0.09577132016420364 -2.1559507846832275
N 7.737880706787109 2.197052240371704 -2.229536771774292
N 5.856298923492432 2.2460718154907227 -0.34275853633880615
H 4.282100677490234 -3.814979076385498 -0.37308862805366516
H 6.806113243103027 -2.9416799545288086 1.6528111696243286
H 8.666793823242188 -4.124516487121582 -2.3542585372924805
H 6.455379962921143 -2.320772647857666 -4.076895236968994
H 10.421688079833984 -0.15074345469474792 -0.4276261329650879
H 10.580482482910156 -0.08876043558120728 -3.764976978302002
H 8.896112442016602 3.727069139480591 -1.983380913734436
H 4.8831658363342285 3.881932020187378 -0.05499102920293808
