16
Generated by QM7 dataset
N 5.319767951965332 -1.9733086824417114 2.0726327896118164
C 4.633967399597168 -0.4055163264274597 -0.10232867300510406
C 5.575807094573975 2.303727388381958 0.24436049163341522
C 8.448531150817871 2.5659079551696777 0.04013778269290924
C 9.912029266357422 2.2036285400390625 2.4628610610961914
O 9.464221000671387 0.022279871627688408 3.6903328895568848
O 11.50385856628418 3.708266258239746 3.1989850997924805
H 4.75878381729126 -3.792680263519287 1.7001866102218628
H 4.186480522155762 -1.4533694982528687 3.565988779067993
H 2.5763959884643555 -0.4149460792541504 -0.3220471143722534
H 5.447116851806641 -1.230438470840454 -1.8174062967300415
H 4.897243976593018 3.0843920707702637 2.0398459434509277
H 4.722633361816406 3.4445362091064453 -1.2621291875839233
H 8.840819358825684 4.512628078460693 -0.5674091577529907
H 9.238889694213867 1.3233940601348877 -1.4147623777389526
H 8.086175918579102 -0.9943360686302185 2.926618814468384
