17
Generated by QM7 dataset
C 4.653223991394043 -2.134918212890625 4.241263389587402
C 6.0784173011779785 -2.3497798442840576 1.7907990217208862
C 6.613682270050049 -4.606396198272705 0.7567219138145447
C 6.813199520111084 0.0969996452331543 0.5275548696517944
C 8.66093635559082 1.6084214448928833 2.1290032863616943
C 11.256928443908691 0.5099425911903381 2.530456781387329
O 8.057433128356934 3.6500816345214844 3.075812816619873
H 5.838894844055176 -1.2656630277633667 5.696541786193848
H 4.050174236297607 -3.984185218811035 4.950213432312012
H 2.9579694271087646 -0.976723849773407 3.9899299144744873
H 6.0545125007629395 -6.363331317901611 1.6611260175704956
H 7.610890865325928 -4.76953649520874 -1.0340958833694458
H 5.123576641082764 1.2486364841461182 0.19791102409362793
H 7.689446926116943 -0.21384140849113464 -1.3238476514816284
H 12.120174407958984 0.07789450883865356 0.7062284350395203
H 11.12929630279541 -1.1957242488861084 3.6853249073028564
H 12.444886207580566 1.8877041339874268 3.5116024017333984
