17
Generated by QM7 dataset
C 1.698920488357544 0.38909462094306946 -0.229374960064888
C 3.956425189971924 0.2555476725101471 -0.41432246565818787
C 6.720130920410156 0.0826566219329834 -0.6407683491706848
C 8.026762962341309 2.252969264984131 0.7490874528884888
C 10.848294258117676 2.103567600250244 0.49040281772613525
C 12.522553443908691 3.2069976329803467 2.5106146335601807
C 12.36461067199707 0.38843321800231934 2.181877851486206
H -0.30488842725753784 0.506011962890625 -0.06468532234430313
H 7.2577009201049805 0.10512546449899673 -2.6440482139587402
H 7.367645263671875 -1.7313103675842285 0.12332352995872498
H 7.475435256958008 2.23628306388855 2.748833417892456
H 7.388791561126709 4.069657325744629 -0.02108934335410595
H 11.459015846252441 2.3182971477508545 -1.4553537368774414
H 11.653997421264648 4.026155948638916 4.175652027130127
H 14.245813369750977 4.146096706390381 1.9221160411834717
H 13.980439186096191 -0.5747601985931396 1.3693900108337402
H 11.388434410095215 -0.6897500157356262 3.6251373291015625
