20
Generated by QM7 dataset
C 1.9026141166687012 3.1694676876068115 2.6302154064178467
N 4.613369464874268 3.663612127304077 2.5049643516540527
C 5.697467803955078 2.632180690765381 0.16903600096702576
C 8.538311958312988 3.19509220123291 -0.0067463223822414875
C 9.257125854492188 6.006418704986572 -0.01651620678603649
C 8.126502990722656 7.479857444763184 -2.212472438812256
O 8.521379470825195 7.186458587646484 2.290952682495117
H 1.1462700366973877 3.9465417861938477 4.389928340911865
H 1.500650405883789 1.141035556793213 2.6036269664764404
H 0.9056134819984436 4.081751823425293 1.0652008056640625
H 5.463594913482666 2.804429054260254 4.015271186828613
H 4.728132724761963 3.4192893505096436 -1.4826979637145996
H 5.429296493530273 0.576612114906311 0.12116923928260803
H 9.277251243591309 2.3034815788269043 -1.7248097658157349
H 9.481417655944824 2.2801246643066406 1.5987650156021118
H 11.319157600402832 6.150491714477539 -0.12634709477424622
H 6.06449031829834 7.600119590759277 -2.0741066932678223
H 8.630889892578125 6.628743648529053 -4.028763771057129
H 8.819314002990723 9.432700157165527 -2.1906650066375732
H 6.787102699279785 6.614003658294678 2.6282501220703125
