12
Generated by QM7 dataset
C 1.8769893646240234 -0.05657840147614479 0.02033345401287079
C 4.762109756469727 0.0 0.0
C 5.782278537750244 -1.4401980638504028 -2.2845845222473145
C 5.672995567321777 2.5722384452819824 0.0
N 6.399047374725342 4.622572422027588 0.0
H 1.1271082162857056 0.9254555702209473 1.6832925081253052
H 1.178017497062683 -2.004734754562378 0.06810572743415833
H 1.0857043266296387 0.8655134439468384 -1.658234715461731
H 5.433642864227295 -0.9561447501182556 1.7121297121047974
H 5.162769794464111 -0.5795223116874695 -4.06385612487793
H 5.1341023445129395 -3.405475378036499 -2.2649879455566406
H 7.853021621704102 -1.4560906887054443 -2.286001682281494
