13
Generated by QM7 dataset
C 1.6263738870620728 -0.46765053272247314 -0.3953874111175537
C 4.431766986846924 -0.492708295583725 0.05189187824726105
C 5.769031524658203 -2.6395883560180664 -0.08464083075523376
N 5.672145366668701 1.7227877378463745 0.6144066452980042
C 4.674993515014648 4.095868110656738 0.8427611589431763
O 5.961632251739502 5.952542781829834 1.3539131879806519
H 1.154112458229065 0.7508826851844788 -1.9997837543487549
H 0.625877320766449 0.21297213435173035 1.283199667930603
H 0.8967317342758179 -2.3575844764709473 -0.8224465847015381
H 4.868557929992676 -4.431332111358643 -0.5230572819709778
H 7.795139312744141 -2.691688060760498 0.2328331619501114
H 7.5653862953186035 1.6687604188919067 0.9101676940917969
H 2.6241681575775146 4.224407196044922 0.5338665246963501
