16
Generated by QM7 dataset
O 1.6461970806121826 0.2766181230545044 -0.6462485194206238
C 3.799766778945923 0.2604420483112335 0.21813108026981354
C 5.64752197265625 2.4159014225006104 -0.06032005697488785
C 4.375906467437744 4.9914093017578125 -0.23502524197101593
C 6.1657795906066895 6.718316555023193 1.1844614744186401
N 7.010487079620361 5.131967067718506 3.2757458686828613
C 7.409256935119629 2.608351230621338 2.2205982208251953
H 4.562686920166016 -1.4832838773727417 1.0719282627105713
H 6.774611473083496 2.0435876846313477 -1.7597129344940186
H 2.512693166732788 4.987138271331787 0.6747267246246338
H 4.118185520172119 5.592644691467285 -2.197713613510132
H 7.770043849945068 7.2618207931518555 -0.00914627406746149
H 5.226358890533447 8.433564186096191 1.8532544374465942
H 8.620949745178223 5.830069541931152 4.067465305328369
H 9.377236366271973 2.4204745292663574 1.5980658531188965
H 7.064816951751709 1.1694191694259644 3.666200876235962
