13
Generated by QM7 dataset
C 3.0108816623687744 -1.911854863166809 1.2655117511749268
C 4.9297661781311035 -1.1303775310516357 0.3382042944431305
C 7.27862024307251 -0.18354910612106323 -0.7897921204566956
O 8.701244354248047 1.1043559312820435 1.099820613861084
C 11.005745887756348 2.12282395362854 0.14403492212295532
C 12.94581413269043 0.15418276190757751 -0.10280109941959381
C 14.525663375854492 -1.4630448818206787 -0.2993893027305603
H 1.31742262840271 -2.603135585784912 2.1067988872528076
H 6.834345817565918 1.122913122177124 -2.333962917327881
H 8.37161922454834 -1.7665915489196777 -1.5534493923187256
H 11.647988319396973 3.543633460998535 1.5042030811309814
H 10.678237915039062 3.1041207313537598 -1.650902509689331
H 15.921055793762207 -2.9060020446777344 -0.45738932490348816
