17
Generated by QM7 dataset
C 2.6695215702056885 -0.5567511320114136 0.0001511780865257606
N 5.390292644500732 -0.9415938258171082 -0.1332823783159256
C 6.743090629577637 1.4512907266616821 0.12689511477947235
C 9.558310508728027 1.0221529006958008 -0.009845472872257233
C 10.70667839050293 -0.5524614453315735 2.0601415634155273
C 10.988228797912598 2.036123275756836 -1.8483411073684692
H 1.7081990242004395 -2.3785226345062256 -0.17988303303718567
H 1.999670386314392 0.6691142320632935 -1.5255380868911743
H 2.117192506790161 0.2606688141822815 1.817973256111145
H 5.842012882232666 -1.7104477882385254 -1.8411601781845093
H 6.29921293258667 2.335550308227539 1.9497438669204712
H 6.14017391204834 2.769960641860962 -1.3554250001907349
H 10.263291358947754 0.2620672285556793 3.9105803966522217
H 12.767197608947754 -0.6551680564880371 1.9018014669418335
H 9.980512619018555 -2.488070011138916 2.000653028488159
H 10.17109203338623 3.190462350845337 -3.3344407081604004
H 13.016547203063965 1.732614278793335 -1.9185066223144531
