12
Generated by QM7 dataset
C 1.8749295473098755 -0.035885900259017944 -0.030500179156661034
C 4.710123538970947 0.05073914676904678 -0.0033070207573473454
C 6.0655107498168945 -2.441922903060913 -0.013058007694780827
C 5.99271821975708 2.2391176223754883 0.035300083458423615
H 1.0394060611724854 1.8542370796203613 -0.025076664984226227
H 1.173822283744812 -1.0405210256576538 1.6384303569793701
H 1.2048894166946411 -1.0197150707244873 -1.7219184637069702
H 4.735766887664795 -4.021620750427246 0.10489869862794876
H 7.34695291519165 -2.5855798721313477 1.6059459447860718
H 7.154937744140625 -2.6671783924102783 -1.756424903869629
H 5.030073165893555 4.050061225891113 0.04155507683753967
H 8.042617797851562 2.273453950881958 0.0514572411775589
