18
Generated by QM7 dataset
C 5.85117769241333 -2.7061634063720703 2.5673062801361084
C 5.692403316497803 0.136740580201149 2.751006603240967
C 4.872337818145752 1.2072893381118774 4.9088850021362305
C 6.436728477478027 1.5487439632415771 0.3608998954296112
N 5.921022415161133 4.2878265380859375 0.4545358121395111
C 9.259318351745605 1.200713038444519 -0.3338012099266052
O 9.88022518157959 2.752159357070923 -2.4591763019561768
H 7.814112186431885 -3.3152787685394287 2.338573932647705
H 4.753114700317383 -3.3841404914855957 0.9500787258148193
H 5.106266975402832 -3.641275405883789 4.257382869720459
H 4.346804618835449 0.06343810260295868 6.532688617706299
H 4.6894121170043945 3.2329812049865723 5.154095649719238
H 5.296807765960693 0.8226355910301208 -1.2117490768432617
H 6.905040264129639 5.050803184509277 1.9247994422912598
H 4.05338716506958 4.5340576171875 0.8576143980026245
H 9.680235862731934 -0.7584982514381409 -0.8422131538391113
H 10.493441581726074 1.752683162689209 1.2342746257781982
H 8.76082706451416 4.219456195831299 -2.2917275428771973
