16
Generated by QM7 dataset
C 3.6066555976867676 -0.1812058389186859 -0.8305346369743347
C 6.007420539855957 -0.5913897752761841 0.6903547644615173
N 7.701181888580322 1.53200101852417 0.3745437264442444
C 10.037054061889648 1.7530800104141235 1.4640086889266968
C 11.720308303833008 3.8598601818084717 0.5245879888534546
N 10.897597312927246 0.32605335116386414 3.2383670806884766
H 2.30104398727417 -1.7621129751205444 -0.5582062005996704
H 4.026798725128174 -0.03163401409983635 -2.850954294204712
H 2.649320363998413 1.5590996742248535 -0.2521461546421051
H 6.933537483215332 -2.333622694015503 0.06060351803898811
H 5.512010097503662 -0.8104279637336731 2.6888723373413086
H 7.396615028381348 2.6051952838897705 -1.1855952739715576
H 10.871140480041504 5.678267955780029 1.019563913345337
H 11.902742385864258 3.7379350662231445 -1.530923843383789
H 13.59841251373291 3.7360641956329346 1.377459168434143
H 9.576225280761719 -0.9877598285675049 3.7261807918548584
