14
Generated by QM7 dataset
N 5.688907146453857 -2.201549768447876 -0.6609506011009216
C 4.426286697387695 0.08140940219163895 0.21705394983291626
C 6.320755958557129 2.112241268157959 0.7007104754447937
O 6.84882116317749 3.744889259338379 -1.3943722248077393
C 5.515676021575928 4.846920967102051 0.6974790096282959
C 6.982179164886475 6.662380695343018 2.0601794719696045
C 8.210577011108398 8.190450668334961 3.2051076889038086
H 4.376246452331543 -3.5649304389953613 -1.0093215703964233
H 6.8372368812561035 -2.892225742340088 0.7195510268211365
H 3.3938724994659424 -0.33032411336898804 1.9626318216323853
H 3.041797637939453 0.6782416105270386 -1.201865792274475
H 7.8669867515563965 1.5422621965408325 1.9095871448516846
H 3.536452293395996 5.284090042114258 0.4083887040615082
H 9.311266899108887 9.546329498291016 4.205207347869873
