17
Generated by QM7 dataset
C 1.8641769886016846 -0.24676044285297394 -0.2994838058948517
C 4.711389541625977 0.05826025828719139 -0.006878603249788284
N 6.092401504516602 -1.4577914476394653 -1.8799184560775757
C 5.477295398712158 2.845284938812256 -0.20703840255737305
C 5.2540998458862305 4.173819065093994 -2.7315614223480225
N 6.2558441162109375 3.9730546474456787 1.839913010597229
O 6.874956130981445 6.504096984863281 1.3790843486785889
H 0.8599199056625366 0.9169707298278809 1.0880098342895508
H 1.2969189882278442 -2.21708345413208 -0.008636048063635826
H 1.2098215818405151 0.3330642282962799 -2.1764163970947266
H 5.25986385345459 -0.6109484434127808 1.8764981031417847
H 5.374948024749756 -1.1563800573349 -3.6411054134368896
H 5.791972637176514 -3.3257856369018555 -1.5122532844543457
H 4.352039337158203 2.9696857929229736 -4.14358377456665
H 7.141256332397461 4.683289527893066 -3.4029622077941895
H 4.111307144165039 5.8830952644348145 -2.5237858295440674
H 7.5037055015563965 7.058958530426025 3.020916223526001
