12
Generated by QM7 dataset
C 1.7003189325332642 0.0683135986328125 -0.061699558049440384
C 4.518561840057373 -0.01568472757935524 -0.2691914737224579
C 6.016547679901123 1.9401440620422363 0.33365005254745483
C 8.82902717590332 1.921284556388855 0.14972300827503204
O 9.994780540466309 3.8366732597351074 0.7588762044906616
C 10.208810806274414 -0.2916225492954254 -0.7257871031761169
N 11.248897552490234 -2.0931551456451416 -1.4333006143569946
H 1.0471161603927612 -1.400683879852295 1.2388666868209839
H 0.8485059142112732 -0.27622127532958984 -1.9141980409622192
H 1.0196584463119507 1.8941291570663452 0.6323212385177612
H 5.294747829437256 -1.7939926385879517 -0.9520629048347473
H 5.237205982208252 3.712801694869995 1.0146507024765015
