12
Generated by QM7 dataset
C 1.8371728658676147 -0.13537998497486115 -0.06689630448818207
N 4.587026596069336 -0.0010393493575975299 -0.1822262853384018
C 5.439293384552002 2.6312546730041504 0.021297212690114975
C 8.298429489135742 2.6756820678710938 -0.018576007336378098
O 9.54128360748291 3.8141098022460938 -1.6147710084915161
H 1.2379028797149658 -2.1081595420837402 -0.2261246293783188
H 0.9606611728668213 0.9235847592353821 -1.6131080389022827
H 1.128941297531128 0.5875725746154785 1.7372630834579468
H 5.166435718536377 -0.7084771990776062 -1.884548306465149
H 4.831274032592773 3.4782676696777344 1.808864712715149
H 4.729681968688965 3.7736318111419678 -1.5519943237304688
H 9.23679256439209 1.6412460803985596 1.5306971073150635
