15
Generated by QM7 dataset
C 2.067492723464966 -0.022544432431459427 0.37403348088264465
N 4.707629203796387 -0.013341466896235943 -0.3499961793422699
C 6.1423468589782715 2.3235127925872803 -0.374581515789032
C 8.726452827453613 1.5201524496078491 -1.3554816246032715
N 8.757293701171875 -1.1640901565551758 -0.9294995665550232
C 6.334834575653076 -2.079738140106201 -0.5121346712112427
S 5.70353364944458 -5.133252143859863 -0.2951941192150116
H 1.2390556335449219 -1.9042013883590698 0.19758976995944977
H 1.0397083759307861 1.289416790008545 -0.8498854041099548
H 1.9172027111053467 0.6016699075698853 2.3391597270965576
H 6.2649335861206055 3.025092601776123 1.5699466466903687
H 5.235561847686768 3.7372169494628906 -1.5762016773223877
H 8.897171020507812 1.8400263786315918 -3.3919260501861572
H 10.295757293701172 2.4311516284942627 -0.37159574031829834
H 10.204596519470215 -2.3458871841430664 -1.3409496545791626
