17
Generated by QM7 dataset
N 3.638554334640503 -1.181230068206787 -2.402937889099121
C 4.180943489074707 -0.06727425009012222 0.0818251445889473
C 5.724245071411133 2.340123414993286 -0.17230522632598877
N 8.037344932556152 2.061880111694336 -1.7414393424987793
C 4.359843730926514 4.8146820068359375 -0.9008891582489014
O 5.706916332244873 6.190610408782959 1.0700763463974
C 6.393075942993164 3.803281784057617 2.2589974403381348
H 2.6041371822357178 -2.7879507541656494 -2.1475415229797363
H 5.318350791931152 -1.773337960243225 -3.148869514465332
H 5.205874443054199 -1.459548830986023 1.2227661609649658
H 2.3910326957702637 0.3138646185398102 1.0494216680526733
H 9.092568397521973 3.6811299324035645 -1.7880966663360596
H 7.597870826721191 1.709332823753357 -3.5869648456573486
H 2.3199033737182617 4.860073089599609 -0.553141713142395
H 4.745574951171875 5.58385705947876 -2.7812421321868896
H 8.371769905090332 3.777940511703491 2.860062599182129
H 5.181553363800049 3.4321393966674805 3.896312952041626
