17
Generated by QM7 dataset
C 1.9131587743759155 0.0446920245885849 1.0775595903396606
C 4.288072109222412 0.006387274246662855 0.20734074711799622
C 5.759828567504883 -2.3489105701446533 -0.47781726717948914
C 7.7712907791137695 -1.4946978092193604 -2.308640718460083
C 10.086488723754883 -0.08551010489463806 -1.4447523355484009
C 7.798842906951904 1.3408173322677612 -2.3603057861328125
C 5.806920528411865 2.3020455837249756 -0.5633273720741272
H 0.9300287365913391 1.815724492073059 1.4050869941711426
H 0.8941805958747864 -1.6910780668258667 1.4689786434173584
H 4.536419868469238 -3.7698147296905518 -1.3523635864257812
H 6.639363765716553 -3.1633827686309814 1.2100672721862793
H 7.802150249481201 -2.525146484375 -4.071434020996094
H 10.529799461364746 -0.053592633455991745 0.5545779466629028
H 11.734159469604492 -0.12525105476379395 -2.6619627475738525
H 7.8533806800842285 2.3039352893829346 -4.159702777862549
H 6.703444480895996 3.160907030105591 1.092828631401062
H 4.613104820251465 3.7141621112823486 -1.4909182786941528
