18
Generated by QM7 dataset
C 1.9991601705551147 -0.08836359530687332 -0.030122235417366028
C 4.816798686981201 -0.0784425288438797 -0.04117713123559952
C 6.35148286819458 -1.3489998579025269 -2.078906536102295
N 5.16154146194458 -2.65155029296875 -4.196155548095703
C 6.236776351928711 1.4967764616012573 -1.9532397985458374
C 8.514841079711914 2.966888904571533 -1.1888644695281982
O 10.005514144897461 3.4673640727996826 -3.362654209136963
H 1.2965600490570068 1.3767410516738892 1.2495625019073486
H 1.2973536252975464 -1.914122462272644 0.6400691270828247
H 1.1933999061584473 0.2714969515800476 -1.8999305963516235
H 5.555870532989502 -0.18655376136302948 1.8693926334381104
H 8.095322608947754 -2.244295358657837 -1.4497222900390625
H 3.674572467803955 -1.6560803651809692 -4.908941745758057
H 4.4414801597595215 -4.3487701416015625 -3.6353983879089355
H 5.147500514984131 2.502847671508789 -3.3677942752838135
H 9.681445121765137 1.9560933113098145 0.18836790323257446
H 7.955841541290283 4.775602340698242 -0.35895347595214844
H 10.207715034484863 1.8683722019195557 -4.248954772949219
