13
Generated by QM7 dataset
C 0.7404513955116272 -1.897284984588623 -0.2242349088191986
C 3.399106979370117 -0.9551998972892761 0.2682277262210846
O 3.468648910522461 1.7010747194290161 -0.2091548889875412
N 5.931472301483154 2.5741093158721924 0.24934937059879303
C 5.9928693771362305 4.968146800994873 -0.17848463356494904
C 8.429634094238281 6.1017746925354 0.22572778165340424
N 10.368058204650879 7.09025239944458 0.5310508608818054
H 0.6022745966911316 -3.929987907409668 0.12150938808917999
H 0.18148930370807648 -1.5124045610427856 -2.1790809631347656
H -0.6166365146636963 -0.9184635877609253 0.9932400584220886
H 4.73756217956543 -1.9169381856918335 -0.9849063754081726
H 3.9278523921966553 -1.3166477680206299 2.237114429473877
H 4.394520282745361 6.144538879394531 -0.7982203364372253
