19
Generated by QM7 dataset
C 0.7968218922615051 0.4563310742378235 -0.6406360268592834
C 3.363429069519043 0.03518670052289963 0.5806561708450317
C 4.906333923339844 2.4621808528900146 0.9550297856330872
C 3.5104308128356934 4.426569938659668 2.575167655944824
O 5.098235607147217 6.5832390785217285 2.9348013401031494
O 7.228088855743408 1.9197349548339844 2.2800867557525635
C 9.11273193359375 0.7917196750640869 0.7300578951835632
H -0.08122042566537857 -1.3630027770996094 -1.0897483825683594
H 0.9750041961669922 1.533342719078064 -2.396531820297241
H -0.48630213737487793 1.4656904935836792 0.6266709566116333
H 4.433052062988281 -1.2814233303070068 -0.6087563633918762
H 3.1221678256988525 -0.93282550573349 2.399101734161377
H 5.373285293579102 3.327958822250366 -0.8691228628158569
H 3.0642099380493164 3.6702640056610107 4.448056221008301
H 1.7680655717849731 5.07525634765625 1.6763004064559937
H 6.733283042907715 5.881791591644287 3.4336323738098145
H 10.840017318725586 0.615313708782196 1.849947452545166
H 9.517548561096191 1.9823416471481323 -0.9117550849914551
H 8.544717788696289 -1.0975340604782104 0.12555339932441711
