17
Generated by QM7 dataset
N 2.055379629135132 -0.014059562236070633 -0.008012439124286175
C 4.820294380187988 0.004875493235886097 0.0691828727722168
C 5.939560413360596 1.9508966207504272 -1.8243416547775269
C 5.204419136047363 0.0843573734164238 -3.9786672592163086
C 6.011162281036377 -1.868164300918579 -1.9060155153274536
N 8.766477584838867 -1.3694655895233154 -1.6568362712860107
C 8.755611419677734 1.416444182395935 -1.5662617683410645
H 1.246482253074646 1.401307463645935 1.0170316696166992
H 1.278116226196289 -1.6522819995880127 0.637895941734314
H 5.595403671264648 -0.027949050068855286 1.9866690635681152
H 5.250944137573242 3.8874690532684326 -1.8659722805023193
H 6.344396591186523 0.14471523463726044 -5.706198215484619
H 3.2171263694763184 0.061434995383024216 -4.551990985870361
H 5.391936779022217 -3.8265819549560547 -2.024765968322754
H 9.536011695861816 -2.062258243560791 -0.03367491811513901
H 9.849932670593262 2.2100346088409424 -3.132655620574951
H 9.518853187561035 2.123201847076416 0.22213730216026306
