18
Generated by QM7 dataset
C 4.9751386642456055 -1.8891969919204712 -0.8132436275482178
N 4.120831489562988 0.5580928325653076 0.11364813148975372
C 6.164588928222656 2.4254066944122314 0.21569333970546722
C 6.386744976043701 4.3310441970825195 -1.8841325044631958
C 5.478920936584473 5.1492204666137695 0.6863107085227966
C 7.104822158813477 6.735721111297607 2.3519909381866455
O 6.410007953643799 9.31313705444336 2.072821617126465
H 3.3643171787261963 -3.1785571575164795 -0.9500220417976379
H 6.36365270614624 -2.7308053970336914 0.46929457783699036
H 5.813969135284424 -1.7251498699188232 -2.696998357772827
H 3.323007822036743 0.32922807335853577 1.8538780212402344
H 7.917120933532715 1.7648152112960815 1.0675818920135498
H 5.013877868652344 4.258856773376465 -3.4036991596221924
H 8.270273208618164 4.856860637664795 -2.490734577178955
H 3.4922139644622803 5.5985026359558105 0.9131345748901367
H 9.116265296936035 6.5477118492126465 1.9019715785980225
H 6.8338165283203125 6.2063517570495605 4.3321404457092285
H 6.452828884124756 9.683788299560547 0.2741236686706543
