19
Generated by QM7 dataset
C 5.687376499176025 -2.922593832015991 0.2757110297679901
C 4.710066795349121 -0.4773259162902832 1.4369288682937622
C 6.218559741973877 1.8548040390014648 0.5890843272209167
C 4.981015682220459 4.269817352294922 1.5728569030761719
C 8.944829940795898 1.7820117473602295 1.521815299987793
C 10.897237777709961 3.0460872650146484 -0.12793445587158203
O 9.544912338256836 0.8100500106811523 3.5478663444519043
H 4.5217180252075195 -4.515765190124512 0.8957679867744446
H 7.636629104614258 -3.3105733394622803 0.8445186018943787
H 5.615018844604492 -2.843451976776123 -1.7898919582366943
H 4.741549491882324 -0.651237428188324 3.501945972442627
H 2.725268602371216 -0.24562659859657288 0.8852800130844116
H 6.248417377471924 1.9051274061203003 -1.4830759763717651
H 4.865118980407715 4.261634826660156 3.640066146850586
H 3.0650224685668945 4.476099967956543 0.8205379843711853
H 6.06386661529541 5.94511604309082 1.021510362625122
H 10.43310260772705 5.044869422912598 -0.35698816180229187
H 10.95559310913086 2.112203598022461 -1.968754529953003
H 12.75790023803711 2.892565965652466 0.7550967931747437
