21
Generated by QM7 dataset
C 1.9220404624938965 -0.0598854199051857 0.33860114216804504
C 4.756799697875977 -0.12634709477424622 -0.262993186712265
C 5.334243297576904 -1.916163444519043 -2.487673282623291
N 4.282856464385986 -1.0572261810302734 -4.890176773071289
C 5.737869739532471 2.593686819076538 -0.6567743420600891
C 8.568585395812988 2.8147470951080322 -1.2079129219055176
N 10.098129272460938 1.7593350410461426 0.8313472270965576
H 1.5752756595611572 1.0132522583007812 2.074069023132324
H 1.184952735900879 -1.9717212915420532 0.6262363195419312
H 0.833463728427887 0.8317440748214722 -1.1778473854064941
H 5.69744873046875 -0.9194273352622986 1.4087340831756592
H 4.581754207611084 -3.800957441329956 -2.067209243774414
H 7.38021183013916 -2.1443288326263428 -2.699587106704712
H 2.361250638961792 -1.050801157951355 -4.786487102508545
H 4.734330654144287 -2.3319408893585205 -6.260832786560059
H 5.3021368980407715 3.710061550140381 1.0371195077896118
H 4.7011284828186035 3.493706703186035 -2.210922956466675
H 9.053167343139648 4.815475940704346 -1.4376280307769775
H 9.04904842376709 1.8765736818313599 -2.987562417984009
H 9.727875709533691 2.709394931793213 2.4647886753082275
H 11.959698677062988 2.061936855316162 0.4425738751888275
