13
Generated by QM7 dataset
C 1.889726161956787 0.0 0.0
C 4.138802528381348 0.0 0.0
C 6.79575777053833 0.0 0.0
C 8.269309043884277 -2.063788890838623 0.009562014602124691
C 10.993444442749023 -1.2800438404083252 0.01345484983175993
C 10.794852256774902 1.5508604049682617 0.00455424003303051
C 8.354025840759277 2.2365474700927734 -0.0031936371233314276
H -0.12260542809963226 -0.0004724315367639065 0.0
H 7.620774269104004 -3.9975833892822266 0.016251644119620323
H 11.971112251281738 -1.966883659362793 -1.67339026927948
H 11.962684631347656 -1.9565469026565552 1.7093706130981445
H 12.389422416687012 2.8234965801239014 0.004932185169309378
H 7.632471561431885 4.143867015838623 -0.010015548206865788
