15
Generated by QM7 dataset
C 2.1396613121032715 -0.23411816358566284 -0.2992003262042999
C 4.9724931716918945 -0.2740858793258667 0.12842579185962677
O 5.957966327667236 2.164851427078247 -0.44981151819229126
C 8.622574806213379 2.276817560195923 -0.08086138218641281
C 9.516377449035645 4.919467449188232 -0.7299445271492004
H 1.304345726966858 -2.074824810028076 0.12844468653202057
H 1.7074620723724365 0.25698384642601013 -2.260981798171997
H 1.2448570728302002 1.1996359825134277 0.8927822113037109
H 5.85023307800293 -1.6924009323120117 -1.0999339818954468
H 5.379256725311279 -0.7429080605506897 2.10456919670105
H 9.55793285369873 0.8969207406044006 -1.3076715469360352
H 9.074502944946289 1.8480576276779175 1.8929386138916016
H 9.053375244140625 5.384358882904053 -2.693596839904785
H 11.559454917907715 5.093322277069092 -0.46851980686187744
H 8.569246292114258 6.323004722595215 0.45929792523384094
