19
Generated by QM7 dataset
C 3.53108549118042 -1.2214056253433228 -2.44711971282959
C 4.4729437828063965 -0.1651998609304428 0.05542566627264023
C 5.968492031097412 2.288892984390259 -0.2785078287124634
C 8.430974960327148 1.9690756797790527 -1.7498486042022705
C 4.419238090515137 4.635781764984131 -1.052350640296936
O 5.354803562164307 6.050997734069824 1.0959466695785522
C 6.349687576293945 3.7584950923919678 2.2139086723327637
H 2.359341859817505 -2.8942477703094482 -2.1165688037872314
H 5.099766254425049 -1.7877187728881836 -3.6693756580352783
H 2.391864061355591 0.16801555454730988 -3.472031593322754
H 5.646010398864746 -1.5868974924087524 1.000817894935608
H 2.832056999206543 0.1576220542192459 1.280950903892517
H 9.528056144714355 3.725198268890381 -1.7888336181640625
H 8.069754600524902 1.4350579977035522 -3.7152016162872314
H 9.6188383102417 0.5079962015151978 -0.8914783000946045
H 2.3595309257507324 4.446506500244141 -0.9657256603240967
H 4.948550224304199 5.523990631103516 -2.842733860015869
H 8.304458618164062 4.002874374389648 2.844226837158203
H 5.191493511199951 3.165536880493164 3.8239552974700928
