19
Generated by QM7 dataset
C 1.8630809783935547 -0.2941925525665283 0.10939624905586243
C 4.676712989807129 0.3229542076587677 0.2185090333223343
C 5.433416366577148 3.0982627868652344 0.09397608041763306
C 3.7493112087249756 4.994130611419678 -0.10873483866453171
C 8.279911041259766 3.5052151679992676 0.18319004774093628
C 9.246713638305664 6.190100193023682 -0.24133692681789398
O 9.159256935119629 2.69399356842041 2.598581314086914
H 1.586198329925537 -2.342334508895874 0.21225403249263763
H 1.0137814283370972 0.36568090319633484 -1.6581591367721558
H 0.8437438011169434 0.556713342666626 1.6961992979049683
H 5.603586196899414 -0.6714574694633484 -1.3472802639007568
H 5.426140785217285 -0.4883241355419159 1.9729307889938354
H 1.7270207405090332 4.664543151855469 -0.183794766664505
H 4.313602447509766 6.963678359985352 -0.20866355299949646
H 9.167193412780762 2.2868142127990723 -1.2384130954742432
H 8.5869722366333 7.477324962615967 1.240831971168518
H 8.668778419494629 6.927282333374023 -2.085388422012329
H 11.315812110900879 6.22116756439209 -0.15110249817371368
H 8.120625495910645 3.551853656768799 3.849069833755493
