17
Generated by QM7 dataset
O 4.364889621734619 -1.7914036512374878 -0.7173400521278381
C 3.6285953521728516 0.6711551547050476 0.04909508675336838
C 5.930187225341797 2.282864809036255 0.2084178924560547
C 6.838200569152832 3.760385036468506 -2.047877311706543
C 5.690210819244385 5.1272993087768555 0.17410047352313995
C 7.335085391998291 6.600737571716309 1.842955470085144
C 6.899182319641113 7.062133312225342 4.293817043304443
H 2.8463056087493896 -2.823005199432373 -0.7155637145042419
H 2.7213377952575684 0.5446001887321472 1.9034076929092407
H 2.257542371749878 1.4046334028244019 -1.3161375522613525
H 7.35146951675415 1.4367209672927856 1.4193732738494873
H 5.7488112449646 3.6623082160949707 -3.7806994915008545
H 8.861190795898438 3.86114501953125 -2.356280565261841
H 3.8276970386505127 5.939919471740723 -0.11415835469961166
H 9.042094230651855 7.3882622718811035 1.0067894458770752
H 5.229288101196289 6.333889484405518 5.233842372894287
H 8.21445083618164 8.176164627075195 5.403653144836426
