14
Generated by QM7 dataset
C 1.889726161956787 0.0 0.0
C 4.618490695953369 0.0 0.0
C 6.86756706237793 0.0 0.0
C 9.524521827697754 0.0 0.0
C 10.93518352508545 -2.4628610610961914 -0.009297452867031097
C 10.766091346740723 2.211433172225952 0.015911493450403214
H 1.1451551914215088 1.9291647672653198 0.022072000429034233
H 1.1451174020767212 -0.9836969375610352 1.6596519947052002
H 1.1451174020767212 -0.9454488754272461 -1.681723952293396
H 9.642818450927734 -4.077499866485596 0.05094701796770096
H 12.178245544433594 -2.5972206592559814 1.638732671737671
H 12.078279495239258 -2.6384356021881104 -1.72426176071167
H 9.768977165222168 4.0051422119140625 0.025114459916949272
H 12.815763473510742 2.2812018394470215 0.018500419333577156
