17
Generated by QM7 dataset
C 2.346472978591919 0.12861475348472595 0.9132857322692871
N 4.697141170501709 -0.19800549745559692 -0.526534378528595
C 4.874548435211182 -2.820737600326538 -1.4857404232025146
C 2.9069089889526367 -3.511394500732422 -3.41949725151062
C 1.3520801067352295 -5.502712249755859 -3.2452645301818848
N 5.171840190887451 1.6848042011260986 -2.220919609069824
C 7.514231204986572 2.3711905479431152 -2.2251524925231934
H 2.382415533065796 1.9456809759140015 1.9058833122253418
H 2.139113187789917 -1.3379449844360352 2.3595876693725586
H 0.6750668883323669 0.11241980642080307 -0.30817654728889465
H 4.833522796630859 -4.137536525726318 0.11585910618305206
H 6.739406108856201 -3.075019121170044 -2.3569610118865967
H 2.7761588096618652 -2.270751714706421 -5.053694725036621
H 1.4140820503234863 -6.784457206726074 -1.6450254917144775
H -0.03095371462404728 -5.8798828125 -4.713222503662109
H 8.140278816223145 3.880042314529419 -3.51375675201416
H 8.967242240905762 1.5319632291793823 -0.9838669896125793
