17
Generated by QM7 dataset
C 1.5687938928604126 0.18955843150615692 0.4951082468032837
C 4.3945393562316895 0.042556632310152054 -0.07870709151029587
C 5.989619255065918 1.8086191415786743 1.624729871749878
O 6.651703834533691 -0.2776196599006653 3.2768795490264893
C 5.815764427185059 -2.0623903274536133 1.3686718940734863
C 4.971113681793213 0.2519571781158447 -2.838425397872925
C 4.495016098022461 -1.660143256187439 -4.425851821899414
H 1.2028106451034546 0.10828130692243576 2.53232741355896
H 0.5406506657600403 -1.382750391960144 -0.3755074739456177
H 0.7568164467811584 1.9586255550384521 -0.21204617619514465
H 4.949211597442627 3.2826244831085205 2.6355254650115967
H 7.6888041496276855 2.638378858566284 0.7810993790626526
H 7.439171314239502 -2.9234819412231445 0.4150027632713318
H 4.636537551879883 -3.5536301136016846 2.182161331176758
H 5.774247169494629 2.0041680335998535 -3.5486032962799072
H 3.6799581050872803 -3.434558391571045 -3.7943055629730225
H 4.912569999694824 -1.4823012351989746 -6.428016662597656
