13
Generated by QM7 dataset
C 1.7794606685638428 0.09329578280448914 -0.06047123670578003
C 4.288374423980713 0.025265637785196304 0.19443392753601074
O 5.58461332321167 2.1733174324035645 0.9132668375968933
C 8.11973762512207 2.2100346088409424 -0.03507331758737564
O 9.626737594604492 0.01024231594055891 0.4623214900493622
C 8.27265453338623 -2.166382074356079 0.11334577202796936
C 5.7596964836120605 -2.246657609939575 -0.09571462869644165
H 0.755436897277832 1.8440136909484863 0.24385026097297668
H 0.6875201463699341 -1.5659593343734741 -0.5631005764007568
H 9.080171585083008 3.818323850631714 0.8432713747024536
H 8.087989807128906 2.566077947616577 -2.080399513244629
H 9.485424041748047 -3.8101603984832764 0.06553570181131363
H 4.799262046813965 -4.033904075622559 -0.387790709733963
