15
Generated by QM7 dataset
C 1.8547850847244263 0.07188518345355988 -0.01755555532872677
N 4.579146385192871 0.040610212832689285 -0.0044030616991221905
C 6.096237659454346 2.1321780681610107 0.013946179300546646
C 8.520151138305664 1.206968069076538 0.020862575620412827
N 8.510211944580078 -1.3801993131637573 0.0070675755850970745
C 6.111582279205322 -2.0584030151367188 -0.008144719526171684
C 5.1927595138549805 -4.7106146812438965 -0.02800574153661728
H 1.1839890480041504 2.0260887145996094 -0.007351034786552191
H 1.1775639057159424 -0.9026654958724976 1.6732958555221558
H 1.194420337677002 -0.8796675205230713 -1.7280033826828003
H 5.362475872039795 4.037872314453125 0.02031455561518669
H 10.2716064453125 2.263608455657959 0.03490324318408966
H 3.1323533058166504 -4.849585056304932 -0.014834349974989891
H 5.909324645996094 -5.714720726013184 1.6322509050369263
H 5.88659143447876 -5.681650638580322 -1.7174209356307983
