20
Generated by QM7 dataset
C 5.0421671867370605 -2.3031036853790283 -0.8907412886619568
C 4.2238593101501465 0.08337471634149551 0.49021387100219727
C 6.289273262023926 2.077753782272339 0.5649147033691406
N 8.524422645568848 1.4560528993606567 2.09895658493042
C 6.7239670753479 3.6396124362945557 -1.787869930267334
C 5.453560829162598 4.8192362785339355 0.4631907641887665
C 6.7634053230285645 6.851731300354004 1.9131965637207031
H 3.4791369438171387 -3.655334949493408 -0.9674075245857239
H 6.629726409912109 -3.2212650775909424 0.06453415006399155
H 5.625128746032715 -1.8791437149047852 -2.829486846923828
H 3.6657097339630127 -0.39499056339263916 2.428184747695923
H 2.5297951698303223 0.8318196535110474 -0.4427250325679779
H 8.009528160095215 1.0168238878250122 3.901679754257202
H 9.431434631347656 -0.08981868624687195 1.3966021537780762
H 5.575693607330322 3.2689428329467773 -3.443307876586914
H 8.64315414428711 4.202240467071533 -2.235564947128296
H 3.4450840950012207 5.205231666564941 0.325486421585083
H 8.823773384094238 6.6702985763549805 1.8609833717346191
H 6.157540321350098 6.817829608917236 3.8907949924468994
H 6.276158332824707 8.702698707580566 1.1272027492523193
