15
Generated by QM7 dataset
C 2.05666446685791 0.23804880678653717 0.4765133559703827
C 4.493277549743652 -0.15327568352222443 -0.07352924346923828
C 5.701228141784668 -2.7411234378814697 -0.22744743525981903
C 7.928440570831299 -2.379014015197754 -2.0609352588653564
C 8.61410903930664 0.35815978050231934 -1.8430688381195068
O 7.207150936126709 2.0832908153533936 -3.364166021347046
C 6.367583274841309 1.7690293788909912 -0.8059492707252502
H 1.2640756368637085 2.1313464641571045 0.46952134370803833
H 0.7959904670715332 -1.3171391487121582 0.9192383885383606
H 4.411433219909668 -4.2144293785095215 -0.8865083456039429
H 6.416319370269775 -3.265881299972534 1.6464805603027344
H 9.509631156921387 -3.6119279861450195 -1.5584193468093872
H 7.3549652099609375 -2.8246493339538574 -4.000153541564941
H 10.498430252075195 0.806686282157898 -1.2174749374389648
H 6.706109046936035 3.2898809909820557 0.5212620496749878
