12
Generated by QM7 dataset
N 1.7194995880126953 -0.10051453113555908 -0.0007180959219112992
C 4.253603458404541 -0.019520871341228485 -0.0011527329916134477
C 5.738247871398926 2.110370635986328 -0.006066021043807268
O 5.299283504486084 4.565389156341553 -0.011470637284219265
O 8.224787712097168 1.491334080696106 -0.0049510826356709
C 8.321257591247559 -1.0815091133117676 0.0007369932136498392
C 5.920984268188477 -2.0957818031311035 0.0032881235238164663
H 0.6784116625785828 1.5137462615966797 -0.003495993325486779
H 0.7073811888694763 -1.726227045059204 0.0038928359281271696
H 6.991741180419922 5.279989242553711 -0.01332256942987442
H 10.196735382080078 -1.8915969133377075 0.0023054659832268953
H 5.457189083099365 -4.082961082458496 0.007747876923531294
