9
Generated by QM7 dataset
C 1.8159701824188232 -0.10317904502153397 -0.0025322330184280872
C 4.081865310668945 0.01863269880414009 0.0005102260620333254
C 6.743015289306641 0.1686391532421112 0.004195191897451878
C 8.414912223815918 2.1246001720428467 0.0012094246922060847
N 10.801977157592773 1.145230770111084 0.007823466323316097
N 10.653803825378418 -1.3671224117279053 0.014853247441351414
O 8.086799621582031 -2.0124638080596924 0.0126422680914402
H -0.1940937638282776 -0.2184712439775467 -0.0051400549709796906
H 8.061949729919434 4.131734848022461 -0.0051400549709796906
