16
Generated by QM7 dataset
O 4.643415927886963 -1.653491497039795 -1.8845105171203613
C 3.9189517498016357 -0.10684511810541153 0.18434278666973114
C 5.2317633628845215 2.457040786743164 0.07711972296237946
C 8.102824211120605 2.3410494327545166 -0.1837758719921112
N 9.353256225585938 1.3568800687789917 2.047064781188965
C 9.797304153442383 -1.1738033294677734 2.3747620582580566
O 9.131270408630371 -2.835458517074585 0.9166305661201477
H 6.228216171264648 -2.4795663356781006 -1.379707932472229
H 4.3211989402771 -1.1060566902160645 1.9501407146453857
H 1.869846224784851 0.16166606545448303 0.08724865317344666
H 4.7136383056640625 3.550870895385742 1.7597129344940186
H 4.503840923309326 3.4844093322753906 -1.5694931745529175
H 8.839685440063477 4.253830432891846 -0.46685683727264404
H 8.65832805633545 1.2168891429901123 -1.8310123682022095
H 9.963958740234375 2.5808935165405273 3.383497953414917
H 10.812200546264648 -1.567849040031433 4.150216579437256
