15
Generated by QM7 dataset
C 3.563683271408081 -0.1947551816701889 0.33514294028282166
C 1.6697430610656738 -2.312533378601074 0.8800076842308044
N -0.13634374737739563 -1.125728726387024 -0.9041016697883606
N -2.531949520111084 -0.7691185474395752 0.03582920879125595
C -2.6771371364593506 1.5298844575881958 0.853173553943634
C -0.30054205656051636 3.043989658355713 0.613972008228302
C 1.3606972694396973 1.262148141860962 -0.8830501437187195
H 5.045304298400879 -0.7307760119438171 -1.008263349533081
H 4.438910007476807 0.6862918138504028 1.9868580102920532
H 2.2914440631866455 -4.206020355224609 0.3297572135925293
H 1.0370817184448242 -2.371455192565918 2.852598190307617
H -4.381065368652344 2.3432226181030273 1.7157957553863525
H 0.4370180666446686 3.4737513065338135 2.496366024017334
H -0.7014285326004028 4.802266597747803 -0.39429137110710144
H 1.7886258363723755 1.9782975912094116 -2.779806137084961
