19
Generated by QM7 dataset
C 1.7049676179885864 -0.07934959977865219 0.4366590082645416
C 4.595020294189453 0.006481760647147894 0.15244421362876892
C 5.351855754852295 2.4696831703186035 -1.2007697820663452
C 7.487945556640625 2.3852500915527344 -3.1373989582061768
C 8.268590927124023 -0.1603621542453766 -4.040876865386963
C 7.408841609954834 -2.330939292907715 -3.0775513648986816
C 5.532834529876709 -2.5010335445404053 -0.9883267879486084
H 1.0019139051437378 1.6104812622070312 1.4034618139266968
H 1.1118015050888062 -1.7338804006576538 1.527087688446045
H 0.7900944948196411 -0.18097907304763794 -1.4216220378875732
H 5.371168613433838 0.114687480032444 2.0765254497528076
H 5.868771076202393 3.861164093017578 0.25571775436401367
H 3.6940743923187256 3.3023908138275146 -2.125922918319702
H 9.154626846313477 3.336991786956787 -2.366485118865967
H 6.910614967346191 3.5054609775543213 -4.789246559143066
H 9.634296417236328 -0.2226286381483078 -5.572084426879883
H 8.09602165222168 -4.1069416999816895 -3.850940704345703
H 3.9393420219421387 -3.636305570602417 -1.6711792945861816
H 6.392622470855713 -3.617710590362549 0.5364554524421692
