16
Generated by QM7 dataset
N 1.8048585653305054 -0.006273890845477581 -0.0354134663939476
C 4.567827224731445 0.0084281787276268 0.02008778788149357
C 5.62645149230957 2.707637310028076 0.0
C 8.355216026306152 2.707637310028076 0.0
C 10.604292869567871 2.707637310028076 0.0
C 13.261247634887695 2.707637310028076 0.0
C 14.586664199829102 4.858636856079102 -0.021637363359332085
H 1.1860677003860474 -1.8294817209243774 -0.047696687281131744
H 1.187069296836853 0.7778112888336182 -1.6822341680526733
H 5.2820868492126465 -1.0521239042282104 -1.6096309423446655
H 5.2071027755737305 -0.9845662117004395 1.721672773361206
H 4.921016693115234 3.7410151958465576 1.6522631645202637
H 4.929596424102783 3.7140300273895264 -1.6727477312088013
H 14.234664916992188 0.9013237953186035 0.020012199878692627
H 13.666820526123047 6.692862033843994 -0.03970314562320709
H 16.636449813842773 4.82399845123291 -0.01957756280899048
