18
Generated by QM7 dataset
C 1.9298827648162842 -0.6630482077598572 -0.07111039757728577
N 4.68684196472168 -0.8112972378730774 -0.16007870435714722
C 5.674790859222412 -1.2333108186721802 -2.7020437717437744
C 5.854560375213623 1.334656834602356 -1.4578102827072144
C 8.354592323303223 2.2985684871673584 -0.5114544034004211
C 8.091939926147461 3.52702260017395 2.0867679119110107
O 7.673932075500488 1.660502314567566 3.982163190841675
H 1.3518911600112915 0.5382128953933716 1.511232852935791
H 1.1497849225997925 -2.5507712364196777 0.2562090754508972
H 1.0593615770339966 0.09335247427225113 -1.792991042137146
H 4.353248596191406 -1.484701156616211 -4.245572090148926
H 7.354587554931641 -2.3990073204040527 -2.815106153488159
H 4.634043216705322 2.840012788772583 -2.12391996383667
H 9.067302703857422 3.694924831390381 -1.8634967803955078
H 9.736776351928711 0.7578557729721069 -0.41286736726760864
H 6.521293640136719 4.872677803039551 2.137620449066162
H 9.830109596252441 4.532092571258545 2.580420970916748
H 6.500619888305664 0.4277017116546631 3.249195098876953
