18
Generated by QM7 dataset
C 4.375755310058594 -2.358245849609375 0.07933070510625839
C 2.9557583332061768 0.019086234271526337 0.8690094351768494
C 4.747615814208984 2.1938397884368896 1.5612350702285767
C 3.223816156387329 4.5864787101745605 2.0975770950317383
O 6.156141757965088 1.4375524520874023 3.743434190750122
C 8.252641677856445 3.02467679977417 4.288072109222412
H 3.0362796783447266 -3.854757785797119 -0.4148704707622528
H 5.581192970275879 -3.0620367527008057 1.604320764541626
H 5.563920497894287 -1.9914122819900513 -1.574217438697815
H 1.7612437009811401 -0.45151227712631226 2.496044874191284
H 1.7075754404067993 0.5935818552970886 -0.6806037425994873
H 6.044137954711914 2.5295684337615967 -0.021826336160302162
H 2.0688722133636475 4.362678527832031 3.799105405807495
H 1.9876328706741333 5.058192253112793 0.5070134997367859
H 4.469693660736084 6.205331325531006 2.4227800369262695
H 9.369885444641113 2.124713659286499 5.775154113769531
H 7.618166446685791 4.8611884117126465 4.988876819610596
H 9.452447891235352 3.2656168937683105 2.622391939163208
