16
Generated by QM7 dataset
C 1.8860033750534058 -1.0098507404327393 0.05559574440121651
C 4.634647846221924 -0.19197727739810944 0.0047432123683393
C 4.8982834815979 2.673508882522583 0.0489061139523983
O 7.5328264236450195 3.282416582107544 -0.010261212475597858
N 7.784670352935791 5.921607971191406 0.32697930932044983
C 9.093003273010254 6.596391201019287 2.447497606277466
O 10.03614616394043 8.685540199279785 2.7637434005737305
H 1.751341462135315 -3.073488473892212 0.04038344696164131
H 0.8675921559333801 -0.2876163125038147 -1.5938706398010254
H 0.9375876188278198 -0.31754958629608154 1.758768081665039
H 5.566018104553223 -0.9519684314727783 -1.6828956604003906
H 5.639831066131592 -1.0039737224578857 1.6247864961624146
H 4.03889274597168 3.4423818588256836 1.771410346031189
H 3.973527193069458 3.513340950012207 -1.6041696071624756
H 8.137652397155762 6.960692882537842 -1.2444602251052856
H 9.1682710647583 5.092320442199707 3.8867321014404297
