19
Generated by QM7 dataset
C 1.7874163389205933 -0.2419416308403015 0.30224278569221497
C 4.631302833557129 -0.11122927814722061 0.09817127138376236
C 5.832148551940918 -2.7009856700897217 0.09987202286720276
C 5.9546403884887695 2.0780372619628906 -0.06451524794101715
C 4.743382453918457 4.656889915466309 -0.24985958635807037
C 8.807295799255371 2.2210707664489746 -0.05812797695398331
O 9.671996116638184 2.6391725540161133 -2.5612404346466064
H 0.920901358127594 1.535610318183899 0.8968451023101807
H 1.2397925853729248 -1.6461970806121826 1.7232412099838257
H 0.9671240448951721 -0.8027745485305786 -1.512385606765747
H 4.775753498077393 -3.9745097160339355 -1.1464591026306152
H 5.809206962585449 -3.49627685546875 2.0098748207092285
H 7.776771068572998 -2.7080342769622803 -0.5921645760536194
H 2.7580742835998535 4.59537935256958 -0.8133948445320129
H 5.703779220581055 5.804860591888428 -1.6823853254318237
H 4.882277488708496 5.640530109405518 1.5652790069580078
H 9.718804359436035 0.5225470662117004 0.6841564774513245
H 9.452391624450684 3.7897324562072754 1.130112886428833
H 8.738471984863281 1.476556420326233 -3.6350204944610596
