12
Generated by QM7 dataset
C 1.912591814994812 -0.14618921279907227 0.02396172657608986
O 4.594585418701172 -0.017347685992717743 0.023716062307357788
C 5.468886375427246 2.5294928550720215 0.0
C 8.197650909423828 2.5294928550720215 0.0
C 10.446727752685547 2.5294928550720215 0.0
C 13.346380233764648 2.5223498344421387 5.6691784266149625e-05
N 15.537631034851074 2.5371463298797607 -7.55890432628803e-05
H 1.356577754020691 -2.1359007358551025 0.04289678484201431
H 1.1443047523498535 0.7374089360237122 -1.6804956197738647
H 1.1430197954177856 0.7700634002685547 1.7105045318603516
H 4.74893856048584 3.5183486938476562 1.6709336042404175
H 4.749013900756836 3.4870738983154297 -1.6890939474105835
