14
Generated by QM7 dataset
C 2.1513586044311523 -1.0972316265106201 -0.34119004011154175
C 4.8135294914245605 -0.033769406378269196 -0.06712307035923004
C 4.8680291175842285 2.8590989112854004 0.08636048436164856
C 7.489249229431152 3.836899995803833 0.6814730167388916
O 9.266101837158203 2.510028839111328 1.3647223711013794
C 4.044599533081055 4.0411224365234375 -2.2861151695251465
N 3.390773296356201 5.013462543487549 -4.13594913482666
H 2.2059717178344727 -3.1649134159088135 -0.30061763525009155
H 1.2873948812484741 -0.5258541107177734 -2.1310253143310547
H 0.9346018433570862 -0.45918455719947815 1.2052295207977295
H 5.9773359298706055 -0.6997466683387756 -1.6497876644134521
H 5.650073051452637 -0.8341439962387085 1.653510332107544
H 3.644676923751831 3.494462728500366 1.6338382959365845
H 7.710215091705322 5.912934303283691 0.6183183789253235
