11
Generated by QM7 dataset
C 1.889726161956787 0.0 0.0
C 4.138802528381348 0.0 0.0
C 6.86756706237793 0.0 0.0
C 7.918632984161377 2.6854519844055176 -0.002683411119505763
C 10.691636085510254 2.649188280105591 -0.002645616652444005
N 12.885003089904785 2.6112802028656006 -0.0025889247190207243
H -0.12523214519023895 -0.00965650100260973 1.8897260815720074e-05
H 7.569298267364502 -1.0301463603973389 -1.657327651977539
H 7.569279193878174 -1.0268205404281616 1.6593685150146484
H 7.239805221557617 3.7209651470184326 1.659236192703247
H 7.239805221557617 3.717639207839966 -1.6666628122329712
