13
Generated by QM7 dataset
C 1.6750344038009644 0.046770721673965454 -0.10525774210691452
C 3.942573308944702 0.03643392026424408 -0.09140605479478836
C 6.837917327880859 0.016478411853313446 -0.06145389378070831
C 9.106060981750488 -0.010639158077538013 -0.01855711080133915
C 11.813263893127441 -0.05538787320256233 0.06347589939832687
C 13.222206115722656 -1.4163119792938232 -2.0019381046295166
C 13.274456977844238 1.4174268245697021 -1.8844349384307861
H -0.3374672830104828 0.05378160625696182 -0.1138371005654335
H 12.629927635192871 -0.14775767922401428 1.9451895952224731
H 12.155871391296387 -2.2919921875 -3.516629219055176
H 14.922789573669434 -2.433929443359375 -1.4840964078903198
H 15.012456893920898 2.3231348991394043 -1.2885286808013916
H 12.244196891784668 2.4549243450164795 -3.3194172382354736
