15
Generated by QM7 dataset
C 4.774336338043213 -1.9631798267364502 2.629686117172241
C 4.0444865226745605 -0.2975184917449951 0.43904006481170654
O 2.02826189994812 -0.5600203275680542 -0.6915642023086548
N 5.695766925811768 1.5904879570007324 -0.24426600337028503
N 8.168511390686035 1.679116129875183 0.650689423084259
C 9.261207580566406 4.133227825164795 0.007672287989407778
C 8.289132118225098 3.6174838542938232 2.62018084526062
H 6.502283096313477 -3.008103847503662 2.192781448364258
H 3.261667251586914 -3.3281667232513428 2.9829893112182617
H 5.0345892906188965 -0.8257347345352173 4.334899425506592
H 5.227492809295654 2.481588363647461 -1.876857042312622
H 8.218400001525879 5.434115409851074 -1.1796804666519165
H 11.289186477661133 4.148553371429443 -0.2742181718349457
H 9.654516220092773 3.277919054031372 4.106601715087891
H 6.558181285858154 4.529541492462158 3.2246663570404053
