15
Generated by QM7 dataset
O 3.4132232666015625 -1.433262825012207 5.617550849914551
C 4.60053825378418 -0.2461368292570114 4.025173187255859
N 7.17109489440918 -0.392855167388916 3.76469349861145
N 8.398377418518066 1.0030854940414429 1.8996094465255737
C 10.76567554473877 2.1740732192993164 2.874462366104126
C 12.014689445495605 1.4411996603012085 0.3498072028160095
C 9.990906715393066 -0.6473634839057922 0.2657710909843445
H 3.6922035217285156 1.041957139968872 2.661736011505127
H 8.117621421813965 -1.550614833831787 4.964877605438232
H 11.613274574279785 1.24360990524292 4.523702144622803
H 10.639668464660645 4.204545974731445 3.239614248275757
H 11.821786880493164 2.869889259338379 -1.1379175186157227
H 13.977737426757812 0.8103523850440979 0.44816744327545166
H 9.198752403259277 -1.0346628427505493 -1.6035460233688354
H 10.600305557250977 -2.434987783432007 1.1244815587997437
