18
Generated by QM7 dataset
C 1.5777323246002197 -1.6991472244262695 -0.558791995048523
C 4.463967800140381 -1.4744398593902588 -0.4324260354042053
C 5.464974403381348 -3.2394251823425293 1.635142207145691
C 5.5833659172058105 -2.1411919593811035 -3.019820213317871
O 4.970660209655762 1.124802827835083 0.1921851485967636
N 7.580693244934082 1.5706647634506226 0.3712556064128876
C 7.9294610023498535 3.917081117630005 0.9218273162841797
H 0.7994486689567566 -0.404817134141922 -1.9767857789993286
H 0.7178880572319031 -1.1688145399093628 1.2497514486312866
H 0.9768561124801636 -3.622623920440674 -1.0294283628463745
H 4.756988525390625 -2.6680853366851807 3.4957475662231445
H 7.531749248504639 -3.1819019317626953 1.7456533908843994
H 4.905011177062988 -5.202151298522949 1.2912876605987549
H 4.951649188995361 -0.796387255191803 -4.462928295135498
H 5.037631988525391 -4.047906875610352 -3.6122493743896484
H 7.6520304679870605 -2.0540378093719482 -2.9960474967956543
H 9.861006736755371 4.653942108154297 1.1485377550125122
H 6.362462043762207 5.2665534019470215 1.1854063272476196
