14
Generated by QM7 dataset
C 3.4154155254364014 -0.4284197986125946 0.19847793877124786
C 1.6680423021316528 -2.4734437465667725 1.288320779800415
C -0.36481162905693054 -1.7239782810211182 -0.6548467874526978
C -2.7910311222076416 -0.46691352128982544 0.2924351096153259
N -2.666611433029175 1.9650505781173706 0.5018923878669739
O -0.18080899119377136 2.7905964851379395 -0.22311995923519135
C 1.170590877532959 0.6492342948913574 -1.2836531400680542
H 4.920091152191162 -1.1735577583312988 -1.012817621231079
H 4.251184463500977 0.8421942591667175 1.5974799394607544
H 2.3757448196411133 -4.4074273109436035 1.1140124797821045
H 1.1261255741119385 -2.139774799346924 3.259021759033203
H -0.6203781962394714 -3.032273530960083 -2.2326924800872803
H -4.490121364593506 -1.5882014036178589 0.7072867155075073
H 1.5352702140808105 0.9456189870834351 -3.2981767654418945
