17
Generated by QM7 dataset
O 5.080093860626221 6.336402893066406 -0.7304169535636902
C 4.511683464050293 3.7361397743225098 -0.37416577339172363
C 6.273210525512695 2.6059701442718506 1.597498893737793
C 8.953144073486328 2.409646511077881 0.5696012377738953
C 10.600910186767578 4.800149917602539 0.5742310881614685
C 12.447607040405273 3.216238260269165 2.114490270614624
O 10.607108116149902 1.2162466049194336 2.417337656021118
H 3.823709726333618 7.009032249450684 -1.8926174640655518
H 4.684139728546143 2.765066146850586 -2.1925547122955322
H 2.552377462387085 3.5944857597351074 0.27436932921409607
H 5.592493534088135 0.7113307118415833 2.083876609802246
H 6.24771785736084 3.748290777206421 3.3254833221435547
H 9.0426607131958 1.3472235202789307 -1.2103885412216187
H 9.828049659729004 6.42108154296875 1.596780776977539
H 11.286937713623047 5.39860725402832 -1.2790989875793457
H 14.116159439086914 2.5499587059020996 1.092034935951233
H 13.006834030151367 4.027573108673096 3.930044651031494
