13
Generated by QM7 dataset
N 1.8451097011566162 -0.01585480198264122 1.2861098051071167
C 4.468163013458252 -0.05364932492375374 0.37805861234664917
C 5.1817426681518555 1.4176725149154663 -1.946984887123108
O 7.812014579772949 2.1066856384277344 -2.2682383060455322
N 9.172295570373535 -0.16739194095134735 -2.8262555599212646
C 7.65703821182251 -2.077432632446289 -2.6985855102539062
C 5.060478687286377 -1.402025580406189 -2.056135416030884
H 1.5079448223114014 1.5979713201522827 2.2891764640808105
H 1.5322843790054321 -1.4657660722732544 2.5188536643981934
H 5.88377571105957 -0.13016434013843536 1.8685801029205322
H 3.757890462875366 2.5057389736175537 -2.9297935962677
H 8.215263366699219 -4.049531936645508 -3.0382261276245117
H 3.5517213344573975 -2.2482450008392334 -3.140913724899292
