17
Generated by QM7 dataset
N 2.0129363536834717 -0.2554720640182495 -0.09424064308404922
C 4.693569660186768 0.26029089093208313 -0.0014928836608305573
C 6.305997371673584 -1.0788068771362305 -2.012331485748291
N 8.401344299316406 -0.6748778820037842 -0.0109604112803936
C 6.24537467956543 -1.3730939626693726 1.8328831195831299
C 8.517316818237305 2.1482596397399902 0.205791175365448
C 5.72163724899292 2.891866683959961 0.20299437642097473
H 1.0381966829299927 0.4223915934562683 1.4238141775131226
H 1.5727813243865967 -2.1286630630493164 -0.21130917966365814
H 6.603931427001953 -0.0893462523818016 -3.807098865509033
H 5.893035411834717 -3.0703136920928955 -2.4185659885406494
H 5.8240227699279785 -3.4018471240997314 1.9177886247634888
H 6.47930383682251 -0.6683205366134644 3.765676259994507
H 9.468019485473633 2.712834119796753 1.954789400100708
H 9.5386381149292 2.9677393436431885 -1.3961107730865479
H 5.23333215713501 4.077235221862793 -1.420752763748169
H 5.168155193328857 3.8386006355285645 1.957283854484558
