18
Generated by QM7 dataset
C 0.968220055103302 -0.6815486550331116 -0.7564573884010315
C 3.747591495513916 -0.5525559186935425 -1.4723045825958252
O 4.091729640960693 1.5029181241989136 -3.1925411224365234
C 5.435306072235107 -0.18069560825824738 0.8728078007698059
N 8.104789733886719 0.008730534464120865 0.09165171533823013
C 9.865050315856934 -0.7081370949745178 2.0943078994750977
C 9.373438835144043 -2.432493209838867 -0.11931730806827545
H 0.6005738377571106 -2.2498135566711426 0.5372302532196045
H -0.1980810910463333 -0.9305578470230103 -2.4461371898651123
H 0.3500150740146637 1.0804320573806763 0.13970744609832764
H 4.273710250854492 -2.2936360836029053 -2.464524030685425
H 5.9122161865234375 1.8107355833053589 -3.206827402114868
H 5.088560104370117 -1.7042495012283325 2.2373602390289307
H 4.939574241638184 1.6067396402359009 1.7951264381408691
H 9.121235847473145 -1.234217882156372 3.926964282989502
H 11.636896133422852 0.31501734256744385 2.1373369693756104
H 10.810650825500488 -2.5631110668182373 -1.5711561441421509
H 8.285126686096191 -4.138046741485596 0.183794766664505
