17
Generated by QM7 dataset
C 4.755288124084473 -0.8472397923469543 -2.6109402179718018
C 4.693890571594238 0.2554342746734619 0.045655783265829086
C 5.399930000305176 3.028796434402466 0.14029327034950256
C 3.7395412921905518 4.775092124938965 0.9468094706535339
C 8.024703025817871 3.7670745849609375 -0.7018253803253174
C 9.977262496948242 2.62282657623291 1.0367037057876587
O 11.504256248474121 1.0083389282226562 0.36452817916870117
H 4.043768405914307 -2.790105104446411 -2.5878853797912598
H 6.681126594543457 -0.9000765681266785 -3.3640904426574707
H 3.577364921569824 0.25176820158958435 -3.90920090675354
H 5.964807033538818 -0.8261315822601318 1.2733163833618164
H 2.7876672744750977 -0.02150508388876915 0.8145853281021118
H 1.8448829650878906 4.260104179382324 1.5491786003112793
H 4.210479736328125 6.771928310394287 1.0158789157867432
H 8.297579765319824 5.8198652267456055 -0.6624435186386108
H 8.379631042480469 3.1461105346679688 -2.6423661708831787
H 9.972235679626465 3.337785482406616 2.9960663318634033
