18
Generated by QM7 dataset
C 1.7345985174179077 -0.11083243787288666 0.09836024791002274
C 4.604979038238525 -0.2276175171136856 -0.24141252040863037
C 5.246805667877197 -1.7591649293899536 -2.6107888221740723
C 5.6972784996032715 2.4692294597625732 -0.34015071392059326
C 8.534153938293457 2.5295307636260986 -0.4779495298862457
C 9.836421012878418 3.610907554626465 -2.3579814434051514
H 1.2392257452011108 0.9176132082939148 1.824001431465149
H 0.9332790374755859 -2.0128040313720703 0.24651476740837097
H 0.8281913995742798 0.8427800536155701 -1.4993654489517212
H 5.400856018066406 -1.2161144018173218 1.4004381895065308
H 4.578749656677246 -0.8067996501922607 -4.322616100311279
H 4.363925457000732 -3.6296157836914062 -2.5347084999084473
H 7.286727428436279 -2.0492756366729736 -2.7894625663757324
H 5.131645679473877 3.495464324951172 1.3705617189407349
H 4.871014595031738 3.49814772605896 -1.940616488456726
H 9.560975074768066 1.6467262506484985 1.0697550773620605
H 8.895186424255371 4.522284507751465 -3.9370553493499756
H 11.887869834899902 3.6036698818206787 -2.355278968811035
