14
Generated by QM7 dataset
N 1.7696340084075928 -0.06192632392048836 0.4172893166542053
C 4.498134136199951 -0.01628943905234337 -0.09305011481046677
C 5.799399375915527 1.938858985900879 1.6106325387954712
O 6.965851783752441 -0.022487740963697433 3.1357359886169434
C 5.8789381980896 -1.9731197357177734 1.5457960367202759
C 5.021606922149658 0.03231431543827057 -2.7599449157714844
C 5.474007606506348 0.06950412690639496 -4.984946250915527
H 1.3276270627975464 -0.2428298145532608 2.283620595932007
H 0.8490161299705505 -1.4832838773727417 -0.4975648820400238
H 4.577445983886719 3.1429924964904785 2.768921136856079
H 7.235194683074951 3.123528242111206 0.7054347395896912
H 7.359462738037109 -3.0691797733306885 0.6016321182250977
H 4.706155300140381 -3.2653145790100098 2.659165859222412
H 5.879599571228027 0.1112859696149826 -6.956629753112793
