20
Generated by QM7 dataset
C 2.008929967880249 0.18827341496944427 -0.7650745511054993
C 4.701676368713379 -0.7698366045951843 -1.0527664422988892
C 6.531932830810547 0.688332736492157 0.6489319801330566
C 9.233315467834473 -0.23833225667476654 0.4039478600025177
C 10.602516174316406 0.5504772067070007 -1.9626318216323853
C 10.777674674987793 -0.49622318148612976 2.8049583435058594
N 9.825687408447266 -2.722282886505127 1.4966630935668945
H 0.7311350703239441 -0.890174388885498 -1.9829274415969849
H 1.8715280294418335 2.182992696762085 -1.2974859476089478
H 1.3534785509109497 -0.010355698876082897 1.1873527765274048
H 5.270295143127441 -0.5980605483055115 -3.034900188446045
H 4.757064342498779 -2.787062644958496 -0.5861552357673645
H 5.891939163208008 0.529387891292572 2.616042375564575
H 6.467568874359131 2.706805944442749 0.18073341250419617
H 12.55331802368164 -0.14180505275726318 -2.0030341148376465
H 10.66958236694336 2.616269111633301 -2.0946669578552246
H 9.647845268249512 -0.1762736588716507 -3.6483242511749268
H 9.898290634155273 -0.07704413682222366 4.605772972106934
H 12.800891876220703 -0.1905221939086914 2.742313861846924
H 11.227581024169922 -3.6032352447509766 0.5048970580101013
