19
Generated by QM7 dataset
C 1.66730535030365 1.8140047788619995 -1.9751228094100952
C 4.4725470542907715 1.4782004356384277 -2.023745536804199
C 6.033063888549805 2.4042418003082275 -0.24573998153209686
C 8.875457763671875 2.172315835952759 -0.12268102169036865
C 9.648847579956055 0.8451043963432312 2.3273866176605225
C 10.122657775878906 0.8622631430625916 -2.3823211193084717
O 9.83764934539795 4.692624568939209 -0.011017103679478168
H 1.0478720664978027 2.797947406768799 -3.6854004859924316
H 1.0348140001296997 2.90732479095459 -0.3375239968299866
H 0.7393931150436401 -0.03322138637304306 -1.915086269378662
H 5.209124565124512 0.4083320200443268 -3.614290237426758
H 5.205458641052246 3.461071252822876 1.3178194761276245
H 8.91519832611084 1.8456010818481445 3.987170934677124
H 11.710084915161133 0.822805643081665 2.534651756286621
H 8.965106010437012 -1.107965350151062 2.3887271881103516
H 9.688607215881348 1.8458466529846191 -4.154071807861328
H 9.526260375976562 -1.1123872995376587 -2.558027744293213
H 12.186805725097656 0.8990750312805176 -2.2009451389312744
H 9.18142318725586 5.577980041503906 -1.4821311235427856
