13
Generated by QM7 dataset
C 1.729212760925293 0.002702308353036642 -0.18148930370807648
C 4.541276454925537 0.12094247341156006 -0.36305418610572815
C 5.955018520355225 1.9477596282958984 0.6826257705688477
C 8.740304946899414 1.9091147184371948 0.40260615944862366
N 9.92391586303711 3.874807834625244 1.5577579736709595
O 9.906397819519043 0.2840825319290161 -0.7488606572151184
H 1.1559265851974487 -1.7590705156326294 0.7368609309196472
H 0.8983191251754761 0.05007774382829666 -2.0744469165802
H 0.9491338729858398 1.5803968906402588 0.9052733182907104
H 5.452105522155762 -1.3928604125976562 -1.420374870300293
H 5.108326435089111 3.47692608833313 1.7439337968826294
H 9.02208137512207 5.248563289642334 2.523200035095215
H 11.828986167907715 3.94291353225708 1.4268566370010376
