17
Generated by QM7 dataset
C 3.599966049194336 0.29744288325309753 -1.38327956199646
O 3.0971477031707764 -0.15953068435192108 1.2370147705078125
C 0.9387403726577759 0.10047674179077148 -0.38178136944770813
C -0.6793754696846008 2.355883836746216 0.1795239895582199
C -3.3696463108062744 1.3707695007324219 -0.23423156142234802
C -3.1960561275482178 -1.4284062385559082 0.44247937202453613
C -0.6372912526130676 -2.2358295917510986 -0.6360629200935364
H 4.324241638183594 2.1400392055511475 -1.8993825912475586
H 4.352719783782959 -1.253833293914795 -2.4851598739624023
H -0.4359031319618225 2.9655282497406006 2.143327474594116
H -0.2734244763851166 3.9551022052764893 -1.0670905113220215
H -4.760503768920898 2.383549451828003 0.9108101725578308
H -3.8980326652526855 1.5774677991867065 -2.2274012565612793
H -4.760106563568115 -2.534935235977173 -0.33179810643196106
H -3.1973977088928223 -1.652395486831665 2.502734422683716
H -0.8289094567298889 -2.736342430114746 -2.636394739151001
H 0.13120368123054504 -3.864905595779419 0.38161128759384155
