22
Generated by QM7 dataset
C 3.011070728302002 3.936488628387451 -2.6536102294921875
C 5.39547061920166 4.451533317565918 -1.13234281539917
C 7.490175247192383 2.5688180923461914 -1.789400577545166
C 9.905094146728516 2.907003402709961 -0.18916158378124237
C 11.767759323120117 0.7652634978294373 -0.7743152976036072
C 11.166958808898926 5.51720666885376 -0.48118096590042114
N 11.862339973449707 6.1229963302612305 -3.0793275833129883
H 1.5339851379394531 5.294993877410889 -2.151869058609009
H 2.286757707595825 2.0344979763031006 -2.2819955348968506
H 3.3772239685058594 4.107792377471924 -4.6829681396484375
H 4.95197057723999 4.331913471221924 0.8869618773460388
H 6.012106895446777 6.3879170417785645 -1.5181492567062378
H 7.943747043609619 2.712890863418579 -3.8075335025787354
H 6.764747142791748 0.647193431854248 -1.493469476699829
H 9.372172355651855 2.7144782543182373 1.8079766035079956
H 12.285789489746094 0.7214407324790955 -2.776895761489868
H 10.935089111328125 -1.0701329708099365 -0.30150580406188965
H 13.500581741333008 0.970374345779419 0.3383554518222809
H 12.868108749389648 5.595195770263672 0.6993876695632935
H 9.90173053741455 6.993044853210449 0.22807104885578156
H 13.173734664916992 4.86551570892334 -3.7156174182891846
H 12.71199893951416 7.850678443908691 -3.125399112701416
