20
Generated by QM7 dataset
C 2.6317648887634277 0.22671043872833252 2.4451732635498047
C 3.9142653942108154 0.9820339679718018 -0.01814137026667595
C 5.515297889709473 3.3613693714141846 0.20866355299949646
C 4.113839149475098 5.764326095581055 0.8442540764808655
N 2.2699201107025146 6.372798919677734 -1.1065102815628052
C 8.035001754760742 3.2069785594940186 -0.16312116384506226
C 9.966094017028809 5.269784927368164 -0.07825355976819992
H 1.665793538093567 -1.5895808935165405 2.213284969329834
H 1.2083097696304321 1.615073323249817 3.0195555686950684
H 4.006464958190918 0.02944193407893181 3.9805381298065186
H 2.4836859703063965 1.2380540370941162 -1.4930158853530884
H 5.079980850219727 -0.614331066608429 -0.6425068974494934
H 5.377328872680664 7.380230903625488 1.075632095336914
H 3.1436917781829834 5.544532299041748 2.659487247467041
H 3.211759567260742 6.67078971862793 -2.759321451187134
H 1.422075629234314 8.040973663330078 -0.6643332242965698
H 8.841046333312988 1.3626437187194824 -0.6020667552947998
H 9.172995567321777 7.15297269821167 0.19503863155841827
H 11.02347183227539 5.295314788818359 -1.856429100036621
H 11.304398536682129 4.90811014175415 1.4566764831542969
