19
Generated by QM7 dataset
C 1.7044951915740967 0.2649773955345154 -0.48386436700820923
C 4.466424465179443 0.49869874119758606 0.13205406069755554
C 5.126826763153076 0.04249994084239006 2.8541290760040283
O 6.096520900726318 -0.7639029026031494 -1.633063554763794
C 6.277764797210693 1.944943904876709 -1.6260148286819458
C 5.333770751953125 3.1781601905822754 -3.9982826709747314
C 8.764908790588379 2.92777156829834 -0.6759172677993774
H 1.349245548248291 -0.013983973301947117 -2.4977834224700928
H 0.6993498206138611 1.9653908014297485 0.12768879532814026
H 0.8752266764640808 -1.3579950332641602 0.49558067321777344
H 7.143523693084717 -0.2865769565105438 3.1544442176818848
H 4.138727188110352 -1.6272621154785156 3.57165789604187
H 4.557358264923096 1.667362093925476 3.998830556869507
H 3.8291141986846924 2.106099843978882 -4.927744388580322
H 6.863315105438232 3.3704209327697754 -5.378652095794678
H 4.611630916595459 5.0690202713012695 -3.572791814804077
H 9.69654369354248 1.632175326347351 0.6363086104393005
H 8.490180015563965 4.739584445953369 0.28115344047546387
H 10.079628944396973 3.224968910217285 -2.2471301555633545
