16
Generated by QM7 dataset
C 4.166052341461182 -1.0221717357635498 -2.61487078666687
C 4.4706950187683105 0.11506542563438416 0.005026671569794416
C 6.239252090454102 2.377161979675293 -0.08501877635717392
C 5.187562942504883 4.859789848327637 -1.2303251028060913
N 6.129893779754639 6.148564338684082 1.0357778072357178
C 6.404206275939941 3.956444025039673 2.359304189682007
O 6.550565719604492 3.6028761863708496 4.60505485534668
H 2.939884662628174 -2.685319662094116 -2.5396406650543213
H 5.995364189147949 -1.600919246673584 -3.3896772861480713
H 3.326730489730835 0.34028297662734985 -3.925849437713623
H 5.244991779327393 -1.3219389915466309 1.2799303531646729
H 2.613377809524536 0.6537129878997803 0.746819794178009
H 8.129772186279297 1.8732855319976807 -0.7802867889404297
H 3.1323344707489014 4.999100208282471 -1.4136285781860352
H 6.110108375549316 5.494378566741943 -2.9650747776031494
H 5.38471794128418 7.638707637786865 1.9679986238479614
