12
Generated by QM7 dataset
C 1.902935266494751 0.2574373781681061 -1.160556435585022
C 4.277829647064209 -0.22073890268802643 -0.45820188522338867
O 6.075582981109619 1.6456302404403687 -0.4235254228115082
C 8.577580451965332 1.1943258047103882 0.27291426062583923
C 10.184338569641113 3.152686834335327 0.26868125796318054
C 9.457399368286133 -1.261618971824646 0.9728876948356628
N 10.173171043395996 -3.257472038269043 1.5427535772323608
H 0.49284058809280396 -1.2298526763916016 -1.1814000606536865
H 1.3248114585876465 2.141040802001953 -1.7273797988891602
H 4.86551570892334 -2.0919456481933594 0.10988757759332657
H 9.542190551757812 5.027163028717041 -0.26093339920043945
H 12.158403396606445 2.9405083656311035 0.7863339185714722
