14
Generated by QM7 dataset
C 3.9275124073028564 -0.219208225607872 -0.1392728090286255
C 1.5448888540267944 -1.6844829320907593 0.3813089430332184
C -0.771027147769928 -2.6361680030822754 -0.8641717433929443
C -2.9257307052612305 -0.8046453595161438 -0.25002965331077576
N -2.683732271194458 1.4712084531784058 0.6905626058578491
O -0.14524434506893158 2.2967731952667236 1.2134120464324951
C 1.5112518072128296 1.0698306560516357 -0.5393467545509338
H 5.0304131507873535 -0.7563818097114563 -1.7788559198379517
H 5.068906784057617 0.3725784122943878 1.455958366394043
H 1.3491889238357544 -2.072783946990967 2.400254487991333
H -1.2908152341842651 -4.499343395233154 -0.12950293719768524
H -0.5843977928161621 -2.7977206707000732 -2.9190032482147217
H -4.847714424133301 -1.458452820777893 -0.7138062715530396
H 1.1951572895050049 1.5426212549209595 -2.517927885055542
