17
Generated by QM7 dataset
C 2.2562952041625977 -0.5524614453315735 -0.030216719955205917
C 5.124861717224121 -0.45088866353034973 0.049529723823070526
C 6.090152740478516 2.233769655227661 -0.33015406131744385
S 9.462255477905273 2.3644063472747803 -0.21905705332756042
C 10.101682662963867 5.602319717407227 -0.8255646824836731
O 10.252917289733887 1.8319950103759766 2.3500444889068604
O 10.444743156433105 0.9230556488037109 -2.3338685035705566
H 1.6011271476745605 -2.4976699352264404 0.22202391922473907
H 1.5400322675704956 0.13604138791561127 -1.8444483280181885
H 1.4322044849395752 0.6029927134513855 1.474855661392212
H 5.892430782318115 -1.6938749551773071 -1.4187686443328857
H 5.786738395690918 -1.1942880153656006 1.8658777475357056
H 5.380730628967285 3.4908909797668457 1.1504842042922974
H 5.5106306076049805 2.9666433334350586 -2.1762843132019043
H 9.34868335723877 6.093497276306152 -2.681842565536499
H 12.146781921386719 5.869791507720947 -0.8002800941467285
H 9.219860076904297 6.744149208068848 0.6483461260795593
