19
Generated by QM7 dataset
C 1.4156882762908936 1.030562162399292 1.2729195356369019
C 4.221648216247559 1.2950104475021362 1.457829236984253
C 5.664019584655762 2.4185280799865723 -0.2978586256504059
C 8.500328063964844 2.6544415950775146 -0.10244205594062805
C 9.481001853942871 5.387439250946045 0.07077024132013321
C 8.777494430541992 7.030858516693115 -2.184126615524292
O 8.60791015625 6.568215847015381 2.332489013671875
H 0.8986592888832092 -0.970374345779419 1.2062311172485352
H 0.652579128742218 1.954978346824646 -0.4130374491214752
H 0.5199203491210938 1.8793137073516846 2.9322314262390137
H 5.092471599578857 0.5007774233818054 3.14437198638916
H 4.786733150482178 3.179067373275757 -1.9953995943069458
H 9.338951110839844 1.728645920753479 -1.7569917440414429
H 9.162564277648926 1.6167930364608765 1.5672821998596191
H 11.546415328979492 5.31901216506958 0.20301328599452972
H 6.7368927001953125 7.361692905426025 -2.285510301589966
H 9.410439491271973 6.180330276489258 -3.9605448246002197
H 9.656557083129883 8.897473335266113 -2.003695487976074
H 6.775064945220947 6.404754161834717 2.365048885345459
