18
Generated by QM7 dataset
C 2.4654500484466553 5.464993476867676 0.18789547681808472
C 5.2548747062683105 5.013859272003174 0.11283554881811142
C 6.303219318389893 2.70601224899292 0.19855351746082306
C 8.999631881713867 2.1154351234436035 0.11073794960975647
C 9.699416160583496 -0.329020231962204 0.21890588104724884
C 10.870800971984863 4.280872344970703 -0.11616146564483643
N 13.534974098205566 3.5480175018310547 -0.04425738751888275
H 1.9774094820022583 6.580366611480713 1.8590558767318726
H 1.3847534656524658 3.7026538848876953 0.2471194863319397
H 1.8809956312179565 6.520008563995361 -1.491882085800171
H 6.408628463745117 6.705220699310303 -0.02919626794755459
H 5.039578437805176 1.0836445093154907 0.33608779311180115
H 8.339247703552246 -1.8561835289001465 0.3719359040260315
H 11.670854568481445 -0.8875665664672852 0.12067791074514389
H 10.555103302001953 5.6325178146362305 1.4222267866134644
H 10.535261154174805 5.26984167098999 -1.9054486751556396
H 13.931703567504883 2.8961374759674072 1.7232223749160767
H 14.612931251525879 5.123406410217285 -0.28209832310676575
