14
Generated by QM7 dataset
C 1.9191681146621704 0.03475206345319748 -0.038512617349624634
C 4.777511119842529 0.22457505762577057 0.03675517439842224
C 5.582893371582031 2.9212331771850586 0.0074455211870372295
N 5.974009990692139 4.303889274597168 1.9754440784454346
O 6.656106948852539 6.694694995880127 1.0264047384262085
C 6.576756954193115 6.4708380699157715 -1.6573842763900757
O 5.861608982086182 3.979139566421509 -2.2854347229003906
H 1.3251703977584839 -1.9459643363952637 -0.009184069000184536
H 1.1594982147216797 0.914287269115448 -1.7516816854476929
H 1.0668449401855469 0.9915204048156738 1.5875588655471802
H 5.610389232635498 -0.752016544342041 -1.586198329925537
H 5.509250640869141 -0.6748400926589966 1.7505289316177368
H 8.44684886932373 6.883233070373535 -2.4371609687805176
H 5.197502613067627 7.810502529144287 -2.4178290367126465
