15
Generated by QM7 dataset
C 8.476706504821777 -3.5782530307769775 -1.8146283626556396
N 7.52158260345459 -1.5470999479293823 -0.862130880355835
N 9.28052043914795 0.4056297242641449 -0.9055945873260498
C 8.333484649658203 2.439145088195801 0.051910776644945145
C 9.96108627319336 4.703131675720215 0.1644817590713501
C 10.372082710266113 6.26969575881958 -2.183011531829834
C 8.806879997253418 7.301731586456299 -0.055973686277866364
H 7.329775333404541 -5.309752464294434 -1.9242892265319824
H 10.426506996154785 -3.685608386993408 -2.5445163249969482
H 6.390486717224121 2.56868577003479 0.7989006042480469
H 11.562629699707031 4.510133743286133 1.432714819908142
H 9.415843963623047 5.7037224769592285 -3.90498685836792
H 12.238320350646973 7.0578813552856445 -2.485084295272827
H 9.6082181930542 8.803289413452148 1.0846461057662964
H 6.78593111038208 7.46415376663208 -0.35188591480255127
