15
Generated by QM7 dataset
C 2.482325315475464 -0.5277060270309448 0.7634304761886597
N 4.837793350219727 0.85183185338974 0.41350987553596497
C 4.720422267913818 3.1892340183258057 -0.22984738647937775
C 2.3278212547302246 4.676108360290527 -0.6657127141952515
N 6.908063888549805 4.552255630493164 -0.5658028721809387
C 9.315574645996094 3.6428818702697754 -0.27633464336395264
O 11.18674373626709 4.970452308654785 -0.5935818552970886
H 2.91388201713562 -2.4178478717803955 1.483983039855957
H 1.4771044254302979 -0.7629580497741699 -1.0289369821548462
H 1.2482397556304932 0.3872993588447571 2.1486942768096924
H 1.1430764198303223 3.7084362506866455 -2.054623603820801
H 2.7281787395477295 6.57853364944458 -1.3672924041748047
H 1.2906640768051147 4.8415350914001465 1.1144471168518066
H 6.831435680389404 6.393888473510742 -1.0582466125488281
H 9.430753707885742 1.6352555751800537 0.2621805965900421
