13
Generated by QM7 dataset
C 2.147088050842285 0.15663939714431763 0.010676953010261059
C 4.918465614318848 0.34185144305229187 0.0006047123461030424
C 6.639004707336426 2.2767043113708496 -0.00024566438514739275
C 6.267654895782471 5.034853935241699 0.009505322203040123
N 9.009383201599121 1.246123194694519 -0.011697405017912388
N 8.818029403686523 -1.2583497762680054 -0.018122473731637
O 6.250250339508057 -1.856769323348999 -0.010355698876082897
H 1.5197744369506836 -1.8139103651046753 -0.006803013850003481
H 1.3534218072891235 1.0951151847839355 -1.6524332761764526
H 1.368161678314209 1.06102454662323 1.6994118690490723
H 4.260198593139648 5.53092622756958 -0.003609376959502697
H 7.149759769439697 5.885231018066406 -1.6563827991485596
H 7.1244378089904785 5.869565010070801 1.6963694095611572
