18
Generated by QM7 dataset
C 2.956627607345581 -0.36454707384109497 0.630450427532196
N 5.590906143188477 0.2907532751560211 1.0987434387207031
C 6.096275329589844 3.014094352722168 0.8601088523864746
C 4.6042609214782715 4.621212005615234 2.749967336654663
C 8.888459205627441 3.3527143001556396 1.3129627704620361
C 10.735363960266113 3.5482630729675293 -0.8499232530593872
O 9.885271072387695 5.742575168609619 0.49359646439552307
H 2.7592835426330566 -2.42338490486145 0.6187341213226318
H 2.3043508529663086 0.3429664075374603 -1.2013555765151978
H 1.7137359380722046 0.3441947102546692 2.1240899562835693
H 6.682997703552246 -0.6487240791320801 -0.18116804957389832
H 5.626036167144775 3.633678674697876 -1.0651063919067383
H 4.934414863586426 3.998452663421631 4.693682670593262
H 2.5737690925598145 4.552350044250488 2.3742897510528564
H 5.182479381561279 6.603213310241699 2.628401279449463
H 9.533025741577148 2.628098726272583 3.113248109817505
H 10.063226699829102 3.3062081336975098 -2.7652552127838135
H 12.662922859191895 2.942209005355835 -0.535132646560669
