13
Generated by QM7 dataset
C 1.9998971223831177 0.05754216015338898 0.26284199953079224
C 4.458034038543701 0.027306541800498962 -0.29802870750427246
O 5.707464218139648 2.2078614234924316 -0.9638170003890991
C 8.190375328063965 1.3364331722259521 -1.570797085762024
O 8.53205680847168 -1.293252944946289 -1.062196135520935
C 6.15984582901001 -2.0731618404388428 -0.33690038323402405
C 5.701096057891846 -4.489743709564209 0.22480182349681854
H 0.9721317887306213 -1.6342918872833252 0.7827812433242798
H 0.9512881636619568 1.818351149559021 0.20537543296813965
H 8.545266151428223 1.6798532009124756 -3.5823538303375244
H 9.568703651428223 2.4166762828826904 -0.4670080244541168
H 3.852811336517334 -5.150392055511475 0.8056658506393433
H 7.206357002258301 -5.877407550811768 0.1105111837387085
