15
Generated by QM7 dataset
N 2.244295358657837 0.4374527037143707 0.09756655991077423
C 4.9187116622924805 -0.1931111067533493 -0.05869489535689354
C 5.451217174530029 -1.5110061168670654 -2.441885232925415
C 5.874364852905273 -2.607330799102783 -4.383824348449707
C 6.422082901000977 2.212888240814209 -0.20097237825393677
C 6.89954137802124 3.7467598915100098 2.161865711212158
N 8.949251174926758 2.37298583984375 0.9451843500137329
H 1.8968315124511719 1.18914794921875 1.8318626880645752
H 1.2383564710617065 -1.200883150100708 0.01232101395726204
H 5.470605850219727 -1.3576170206069946 1.5622365474700928
H 6.250722885131836 -3.573509931564331 -6.1102213859558105
H 6.120558261871338 3.263840436935425 -1.9382164478302002
H 6.279881000518799 3.0089919567108154 3.96662974357605
H 6.934179782867432 5.786908149719238 2.0076639652252197
H 10.069103240966797 3.550833225250244 -0.09771773964166641
