19
Generated by QM7 dataset
N 1.8147228956222534 4.689280033111572 -2.5340659618377686
C 4.330269813537598 3.5476584434509277 -2.4720263481140137
C 5.795563220977783 4.371314525604248 -0.11223083734512329
C 8.37413215637207 3.182506561279297 -0.016459515318274498
C 10.543462753295898 4.502933979034424 -0.04412510618567467
C 13.117325782775879 3.3526008129119873 0.08526444435119629
N 14.562211036682129 4.105240821838379 -2.127680540084839
H 0.9300665259361267 4.181944847106934 -4.16841459274292
H 1.9833431243896484 6.60805082321167 -2.5910980701446533
H 5.364006519317627 4.091464996337891 -4.1830034255981445
H 4.123892784118652 1.4869877099990845 -2.4988603591918945
H 4.755439281463623 3.8121445178985596 1.5918296575546265
H 5.945323944091797 6.439449787139893 -0.07016552984714508
H 8.42999267578125 1.1299806833267212 0.10845138132572174
H 10.484748840332031 6.556121349334717 -0.14373256266117096
H 13.02911376953125 1.2868467569351196 0.19192059338092804
H 14.074793815612793 4.027346611022949 1.7916682958602905
H 13.72606372833252 3.3571741580963135 -3.692694902420044
H 16.311908721923828 3.311253786087036 -2.030057191848755
