15
Generated by QM7 dataset
C 1.8201274871826172 0.09435402601957321 0.08125822246074677
C 4.701601028442383 0.05011553689837456 0.13307450711727142
O 5.569930076599121 2.360513687133789 -1.0321683883666992
C 7.203465938568115 2.1749424934387207 -3.0271522998809814
C 8.067750930786133 0.01821696013212204 -4.019334316253662
C 7.286651611328125 -2.360475778579712 -2.981496572494507
C 5.694406032562256 -2.3663907051086426 -1.0183355808258057
H 1.1084755659103394 1.8234156370162964 0.9712058305740356
H 1.0134034156799316 -1.532435655593872 1.073912501335144
H 1.11064875125885 0.09516660869121552 -1.865462064743042
H 5.329178810119629 0.12167946249246597 2.1062886714935303
H 7.719909191131592 4.026552677154541 -3.723762035369873
H 9.36244010925293 0.02791125513613224 -5.607686519622803
H 8.00661849975586 -4.095149993896484 -3.801240921020508
H 5.0939459800720215 -4.14280891418457 -0.18772539496421814
