16
Generated by QM7 dataset
C 0.4201239049434662 -3.2912793159484863 1.2779650688171387
N 2.35363507270813 -2.1975057125091553 -0.38646790385246277
C 3.729487895965576 -4.26390266418457 -1.6517339944839478
C 4.14188289642334 -0.6458516716957092 1.1526762247085571
C 5.453258514404297 1.292799472808838 -0.5392900705337524
O 4.188937187194824 1.6560425758361816 -2.7441091537475586
O 7.350581169128418 2.4715728759765625 0.039759837090969086
H 1.243798851966858 -4.478405475616455 2.762080430984497
H -0.9137014746665955 -4.436888217926025 0.18443727493286133
H -0.6890886425971985 -1.7923674583435059 2.1779661178588867
H 2.4330224990844727 -5.364138603210449 -2.8333797454833984
H 4.629583358764648 -5.54904842376709 -0.2993137240409851
H 5.192154884338379 -3.519312620162964 -2.9125025272369385
H 5.555549144744873 -1.8195228576660156 2.105438470840454
H 3.1031570434570312 0.4577294588088989 2.565586566925049
H 2.7551450729370117 0.4589200019836426 -2.7233409881591797
