21
Generated by QM7 dataset
C 2.0503716468811035 -0.3560244143009186 -0.10246095061302185
N 4.703471660614014 0.04669513180851936 0.5219234824180603
C 5.492772579193115 2.7137033939361572 0.33077767491340637
C 4.274806022644043 4.310975551605225 2.4160337448120117
C 8.408431053161621 2.7825839519500732 0.48543286323547363
C 9.521951675415039 5.431375026702881 0.14794665575027466
N 12.279025077819824 5.311245441436768 0.09769883751869202
H 1.6629211902618408 -2.3875176906585693 -0.12940844893455505
H 1.5791685581207275 0.3999227285385132 -1.9688678979873657
H 0.793250322341919 0.4714299738407135 1.3123581409454346
H 5.775721073150635 -1.011098027229309 -0.6867453455924988
H 4.929463863372803 3.465304136276245 -1.5185272693634033
H 4.829894542694092 3.6444313526153564 4.295895576477051
H 2.209505558013916 4.273918151855469 2.306751012802124
H 4.820313453674316 6.298343658447266 2.2546510696411133
H 9.189492225646973 1.5481581687927246 -0.9906322360038757
H 9.033401489257812 1.9993113279342651 2.3046534061431885
H 8.951821327209473 6.673794746398926 1.6982969045639038
H 8.85244083404541 6.266539573669434 -1.6225566864013672
H 12.922174453735352 4.542372703552246 1.7426676750183105
H 12.995779037475586 7.099814414978027 0.025076664984226227
