14
Generated by QM7 dataset
C 1.5514084100723267 0.12330462783575058 0.06164286658167839
C 4.2852373123168945 0.13936729729175568 0.760444700717926
C 6.033838748931885 1.5913572311401367 -0.370858758687973
C 8.729476928710938 1.6668329238891602 0.25696495175361633
C 10.425297737121582 -0.39597320556640625 -0.7395632266998291
O 10.622623443603516 2.1513020992279053 -1.629132866859436
H 0.9901787042617798 -1.7740181684494019 -0.5398191809654236
H 1.127675175666809 1.439536690711975 -1.4764996767044067
H 0.4038155674934387 0.6529570817947388 1.6982213258743286
H 4.848489284515381 -1.1201540231704712 2.2834317684173584
H 5.451671123504639 2.8477227687835693 -1.8921828269958496
H 9.128850936889648 2.3946609497070312 2.1327826976776123
H 9.659920692443848 -1.785469889640808 -2.031909227371216
H 11.91578197479248 -1.0917892456054688 0.4764377474784851
