13
Generated by QM7 dataset
C 2.071309804916382 0.002683411119505763 -0.2404487580060959
N 4.754437446594238 0.0379268042743206 0.22058773040771484
N 6.07807731628418 -2.1809139251708984 0.5284430384635925
C 8.400002479553223 -1.5240452289581299 0.9135125279426575
C 8.841707229614258 1.2644535303115845 0.8982057571411133
C 6.222433567047119 2.2153825759887695 0.40870997309684753
O 5.580002307891846 4.41982364654541 0.22667264938354492
H 1.348262906074524 1.9243648052215576 -0.4665167033672333
H 1.132002592086792 -0.9012482166290283 1.3625303506851196
H 1.703682541847229 -1.0786935091018677 -1.9621593952178955
H 9.957364082336426 -2.859250068664551 1.231345534324646
H 9.54203987121582 1.8859277963638306 2.7350006103515625
H 10.130481719970703 1.7747174501419067 -0.6279748678207397
