20
Generated by QM7 dataset
C 4.28264856338501 -0.9024198055267334 -2.754011392593384
C 4.609401226043701 0.07199856638908386 -0.07148834317922592
C 6.202364444732666 2.4681901931762695 -0.051495037972927094
C 4.956524848937988 4.925476551055908 -1.0667692422866821
C 6.082839488983154 6.369548797607422 1.1968390941619873
N 8.554280281066895 7.394630432128906 0.49055400490760803
C 6.441830635070801 3.812635898590088 2.5461602210998535
H 3.1703178882598877 -2.6454086303710938 -2.7555229663848877
H 6.115758419036865 -1.303268551826477 -3.6254963874816895
H 3.3083057403564453 0.48533836007118225 -3.938775062561035
H 5.534006118774414 -1.3869833946228027 1.071418046951294
H 2.74735951423645 0.41770505905151367 0.7675878405570984
H 8.066919326782227 2.1249024868011475 -0.9025899171829224
H 2.882833957672119 4.884809970855713 -1.0340203046798706
H 5.551448345184326 5.514145374298096 -2.958441734313965
H 4.831160545349121 7.725313663482666 2.1226537227630615
H 9.721979141235352 6.167121410369873 -0.4248104393482208
H 9.561541557312012 8.06901741027832 1.9855540990829468
H 8.226374626159668 3.511337995529175 3.547337293624878
H 4.894636154174805 3.380436658859253 3.857667922973633
