15
Generated by QM7 dataset
C 2.7445058822631836 -0.7495976686477661 1.974253535270691
S 6.068439960479736 -0.5014766454696655 1.5858014822006226
O 7.206017017364502 -0.5694311857223511 4.078425884246826
O 6.816638946533203 -2.2902536392211914 -0.3497316241264343
C 6.449219703674316 2.593327760696411 0.34963712096214294
C 9.212395668029785 3.15903639793396 -0.11270326375961304
O 9.431812286376953 5.652132987976074 -1.1072094440460205
H 1.8382878303527832 -0.5073725581169128 0.13679727911949158
H 2.116814613342285 0.7025623917579651 3.2982335090637207
H 2.3223979473114014 -2.623941421508789 2.728348731994629
H 5.640530109405518 3.935316801071167 1.6998465061187744
H 5.3680315017700195 2.726515769958496 -1.4086018800735474
H 10.032480239868164 1.836360216140747 -1.4757627248764038
H 10.304184913635254 3.055819511413574 1.6415483951568604
H 11.22476577758789 5.961141109466553 -1.3876069784164429
