16
Generated by QM7 dataset
C -3.1691086292266846 1.4511207342147827 0.8279646039009094
C -1.913309931755066 -0.7249178290367126 -0.510566234588623
C -0.4546681046485901 -2.6702020168304443 0.94975745677948
O 2.173600912094116 -2.634826183319092 0.32246285676956177
C 3.2176177501678467 -0.1535969376564026 -0.007917952723801136
C 1.4630826711654663 2.0409042835235596 0.7274311780929565
N -0.916347086429596 1.8762712478637695 -0.7037340402603149
H -4.920563220977783 2.171314239501953 0.04452194646000862
H -3.023240566253662 1.619873285293579 2.862670421600342
H -2.7346227169036865 -1.4603047370910645 -2.2332406044006348
H -0.633757472038269 -2.3864784240722656 2.994044303894043
H -1.1791890859603882 -4.562743663787842 0.5357562303543091
H 4.954994201660156 -0.06296567618846893 1.1136534214019775
H 3.7760696411132812 0.015042220242321491 -1.9961177110671997
H 1.1539045572280884 2.0358774662017822 2.778256416320801
H 2.3857414722442627 3.8367488384246826 0.2707977592945099
