16
Generated by QM7 dataset
C -2.9958395957946777 1.608875036239624 1.0405020713806152
C -2.2308216094970703 -0.5560708045959473 -0.6181672215461731
N -0.6689063310623169 -2.646656036376953 0.3467647433280945
C 1.8534055948257446 -2.4053757190704346 -0.7921921014785767
C 3.165895938873291 0.07681737095117569 -0.041347209364175797
O 1.563634991645813 2.260206937789917 0.1374586820602417
C -0.9516660571098328 1.986574649810791 -0.8964482545852661
H -4.811866283416748 2.486482858657837 0.6855359673500061
H -2.4594597816467285 1.586141586303711 3.0146989822387695
H -3.529271364212036 -1.0920727252960205 -2.116814613342285
H -0.48607534170150757 -2.486520528793335 2.2611896991729736
H 3.0324246883392334 -4.012021064758301 -0.2345339059829712
H 1.6718028783798218 -2.501317024230957 -2.855565071105957
H 4.051629543304443 -0.14911828935146332 1.8145339488983154
H 4.67043924331665 0.5093756914138794 -1.3970178365707397
H -1.4089419841766357 3.0982248783111572 -2.5559301376342773
