13
Generated by QM7 dataset
O 3.5600173473358154 -1.4079405069351196 -1.2548348903656006
C 3.8473312854766846 0.3886032700538635 0.18576008081436157
C 5.850686550140381 2.4088339805603027 -0.12128262221813202
C 6.686380386352539 2.794640302658081 -2.861990213394165
C 6.564398288726807 5.582307815551758 -3.081840991973877
C 5.511404991149902 6.503265857696533 -1.001271367073059
O 4.828590393066406 4.764963150024414 0.8085193037986755
H 2.7300684452056885 0.5134007930755615 1.9419959783554077
H 7.450094223022461 1.8968315124511719 1.0946238040924072
H 5.438045978546143 1.8988535404205322 -4.24566650390625
H 8.606454849243164 2.0844624042510986 -3.157581090927124
H 7.1657280921936035 6.669656276702881 -4.699333190917969
H 5.066129207611084 8.440462112426758 -0.5538598299026489
