14
Generated by QM7 dataset
C 1.8740792274475098 -0.07060016691684723 -0.07893385738134384
C 4.762109756469727 0.0 0.0
C 5.741479396820068 -1.4380626678466797 2.304842233657837
O 5.6866774559021 -1.267514944076538 -2.1945390701293945
C 5.672995567321777 2.5722384452819824 0.0
C 6.423746109008789 4.692322254180908 0.0
H 1.1532998085021973 0.880045473575592 -1.7728276252746582
H 1.0376675128936768 0.8492240309715271 1.5755780935287476
H 1.1862188577651978 -2.0214967727661133 -0.16504867374897003
H 5.100502967834473 -0.58037269115448 4.075798988342285
H 7.812751293182373 -1.4822633266448975 2.326441764831543
H 5.114411354064941 -3.4108612537384033 2.2657628059387207
H 5.3025336265563965 -0.19182610511779785 -3.6339056491851807
H 7.1070332527160645 6.586942672729492 0.003420404391363263
