18
Generated by QM7 dataset
C 3.3266549110412598 0.4603939652442932 -3.504572629928589
O 5.729668617248535 0.700067937374115 -2.324967861175537
C 6.101510047912598 2.7248716354370117 -0.7115952968597412
C 4.305911064147949 4.356328964233398 0.04595813900232315
C 8.827458381652832 3.0033040046691895 0.1635179966688156
C 9.632369041442871 0.7528668642044067 1.7910257577896118
N 10.50993824005127 3.257887840270996 -2.0261077880859375
H 3.4037747383117676 -1.1678885221481323 -4.7760748863220215
H 2.889296770095825 2.1336898803710938 -4.6406569480896
H 1.8456010818481445 0.10344360768795013 -2.1053249835968018
H 2.350233554840088 4.225654602050781 -0.5394412279129028
H 4.769158363342285 5.914351463317871 1.2984308004379272
H 9.037029266357422 4.720422267913818 1.3044590950012207
H 9.552017211914062 -1.0316203832626343 0.7422844171524048
H 8.405747413635254 0.5695445537567139 3.449336051940918
H 11.572285652160645 0.9948652386665344 2.4750499725341797
H 10.117291450500488 1.7938225269317627 -3.2206790447235107
H 12.331842422485352 3.011448621749878 -1.4664274454116821
