15
Generated by QM7 dataset
C 1.8060301542282104 -0.5001916289329529 -0.14885373413562775
C 4.587404727935791 -0.05487764626741409 -0.396351158618927
C 5.847625255584717 2.0968778133392334 0.11164502054452896
C 4.799299716949463 4.552633762359619 1.0586812496185303
O 5.2873969078063965 6.513186931610107 -0.7160172462463379
C 8.634404182434082 2.0568535327911377 -0.27884799242019653
O 9.946781158447266 3.938737392425537 0.05068245530128479
H 1.4727392196655273 -2.120253801345825 1.0942648649215698
H 1.0035768747329712 -0.9394773244857788 -2.004338026046753
H 0.7724633812904358 1.107190489768982 0.6277103424072266
H 5.619081974029541 -1.6994684934616089 -1.0821328163146973
H 5.6571221351623535 5.068737030029297 2.8711743354797363
H 2.7583577632904053 4.492218971252441 1.3513998985290527
H 7.129143238067627 6.677366256713867 -0.7857859134674072
H 9.457172393798828 0.2471005916595459 -0.9052355289459229
