17
Generated by QM7 dataset
C 1.434604525566101 1.079392671585083 -1.510666012763977
N 3.7947022914886475 1.1796993017196655 -0.08331802487373352
C 5.278099536895752 2.9579694271087646 -0.8296464681625366
N 7.580163955688477 3.3984456062316895 0.22733405232429504
C 9.410250663757324 5.180041790008545 -0.30893242359161377
C 8.931412696838379 7.045087814331055 -2.410383462905884
C 11.589728355407715 5.286754608154297 0.9881566762924194
H 0.40324866771698 -0.6361762881278992 -0.991312563419342
H 1.7730544805526733 1.0091137886047363 -3.5520236492156982
H 0.23147255182266235 2.7025163173675537 -1.0641614198684692
H 4.781838417053223 4.258025646209717 -2.384286403656006
H 7.99709415435791 2.1857705116271973 1.6535670757293701
H 8.646612167358398 6.055022716522217 -4.205245494842529
H 10.513944625854492 8.354025840759277 -2.671165704727173
H 7.250425815582275 8.180340766906738 -2.000180721282959
H 12.005260467529297 3.979158639907837 2.512202024459839
H 13.026884078979492 6.688137531280518 0.5640454292297363
