13
Generated by QM7 dataset
C 1.709332823753357 -0.017139816656708717 -0.0015117808943614364
N 4.449284553527832 -0.22285540401935577 0.010450185276567936
C 5.6768317222595215 1.857506275177002 0.012453295290470123
N 4.943958282470703 4.346578121185303 0.005858151242136955
C 6.855283737182617 6.09553861618042 0.01273675449192524
C 9.184636116027832 5.1026763916015625 0.024831000715494156
S 9.060991287231445 1.7910068035125732 0.027892358601093292
H 0.8881145715713501 -1.9152752161026 -0.018084678798913956
H 1.0296173095703125 0.9689381718635559 -1.6894530057907104
H 1.0150853395462036 0.946526050567627 1.6933835744857788
H 3.115156888961792 4.875833511352539 -0.002097595948725939
H 6.385403633117676 8.085136413574219 0.008409281261265278
H 10.941779136657715 6.142876148223877 0.03218203783035278
