15
Generated by QM7 dataset
N 3.854663372039795 -2.019947052001953 1.654644250869751
C 4.882504463195801 -0.7533015012741089 -0.3550795316696167
N 4.809919834136963 -1.6862404346466064 -2.6101465225219727
C 6.169539928436279 1.8298784494400024 0.12872815132141113
O 4.789888858795166 3.1394777297973633 2.0284321308135986
C 8.832655906677246 1.335979700088501 0.9992682933807373
C 9.801669120788574 1.8409522771835327 3.2871785163879395
H 4.439023494720459 -1.332030177116394 3.3571362495422363
H 3.9522299766540527 -3.929288625717163 1.567395567893982
H 3.840301513671875 -3.35847806930542 -2.5663046836853027
H 6.1798200607299805 2.95991587638855 -1.6048877239227295
H 3.1043665409088135 3.367586374282837 1.3289121389389038
H 10.0593900680542 0.48271164298057556 -0.41606101393699646
H 8.666019439697266 2.705350875854492 4.76330041885376
H 11.759199142456055 1.4145734310150146 3.719982624053955
