14
Generated by QM7 dataset
O 5.427463531494141 -2.299116373062134 -1.2488633394241333
C 4.403874397277832 -0.3937622308731079 0.3493725657463074
C 5.5197954177856445 2.1801013946533203 -0.3416246771812439
C 8.297296524047852 2.340728282928467 0.2580987811088562
C 9.323171615600586 4.05854606628418 1.8146851062774658
C 11.962817192077637 4.149800777435303 2.312401294708252
N 14.110868453979492 4.241584777832031 2.7347171306610107
H 4.693474769592285 -3.8999979496002197 -0.7213651537895203
H 4.805290222167969 -0.8846185803413391 2.3193743228912354
H 2.3535027503967285 -0.36547303199768066 0.0751166120171547
H 4.475721836090088 3.6611931324005127 0.6620655655860901
H 5.287491321563721 2.5143752098083496 -2.3732502460479736
H 9.4964599609375 0.9533101320266724 -0.6831737756729126
H 8.160989761352539 5.459532260894775 2.7554285526275635
