21
Generated by QM7 dataset
C 1.3290255069732666 1.6360870599746704 -0.005952637176960707
C 4.155658721923828 1.158515453338623 -0.19263868033885956
C 5.649600982666016 3.631770133972168 -0.21716733276844025
C 8.4910306930542 3.1361894607543945 -0.42375218868255615
C 9.965433120727539 5.562446594238281 -0.4442179203033447
C 11.70541763305664 6.1744914054870605 1.2942545413970947
C 13.185148239135742 8.578997611999512 1.2704250812530518
H 0.29965388774871826 -0.15790551900863647 0.017744528129696846
H 0.6554326415061951 2.7410099506378174 -1.6202889680862427
H 0.863113522529602 2.6664035320281982 1.726586103439331
H 4.54996919631958 0.08042674511671066 -1.916730284690857
H 4.754267692565918 -0.00797464419156313 1.410945177078247
H 5.247731685638428 4.700863838195801 1.5133872032165527
H 5.023723602294922 4.802361011505127 -1.8108489513397217
H 8.897378921508789 2.108046293258667 -2.176548719406128
H 9.101638793945312 1.921700358390808 1.141489028930664
H 9.576602935791016 6.856927871704102 -1.995475172996521
H 12.106889724731445 4.878517150878906 2.840390682220459
H 12.663924217224121 9.803030014038086 -0.3135811686515808
H 15.205322265625 8.160989761352539 1.1262578964233398
H 12.860077857971191 9.622881889343262 3.025546073913574
