17
Generated by QM7 dataset
C 12.689397811889648 -0.4065934717655182 1.6873176097869873
N 11.561249732971191 2.0954227447509766 1.4182960987091064
N 9.206594467163086 2.1295323371887207 0.4159476161003113
C 8.359166145324707 4.387603759765625 -0.0030613562557846308
C 5.7827887535095215 4.782537937164307 -1.1533565521240234
C 4.131224632263184 6.108860969543457 0.7293019890785217
C 3.0990185737609863 8.388361930847168 0.357649564743042
H 14.611268043518066 -0.23217175900936127 2.4277122020721436
H 12.7970552444458 -1.362492561340332 -0.143411323428154
H 11.589860916137695 -1.577448844909668 2.990737199783325
H 11.609457015991211 2.9803249835968018 3.137058734893799
H 9.478167533874512 6.102756977081299 0.41713815927505493
H 4.9456400871276855 2.960010290145874 -1.6583669185638428
H 6.021801471710205 5.897703170776367 -2.879772663116455
H 3.74269700050354 5.110499858856201 2.486085891723633
H 3.403529167175293 9.449386596679688 -1.3741710186004639
H 1.8948094844818115 9.244105339050293 1.7846195697784424
