12
Generated by QM7 dataset
C 9.824780464172363 -2.9699692726135254 1.5645610094070435
C 8.219477653503418 -1.0206032991409302 1.469394326210022
C 5.678853988647461 -1.3414976596832275 0.3667013645172119
N 4.102916717529297 0.5175393223762512 0.24264083802700043
O 1.8490781784057617 -0.3238423764705658 -0.8858469128608704
C 0.16831791400909424 1.6320997476577759 -1.0796761512756348
O 0.42382776737213135 3.8352558612823486 -0.43726372718811035
H 11.693360328674316 -2.7269692420959473 2.376349449157715
H 9.344771385192871 -4.830687999725342 0.8511704206466675
H 8.701622009277344 0.8391706943511963 2.1808950901031494
H 5.20103645324707 -3.24581241607666 -0.3439301550388336
H -1.5645232200622559 0.8875476717948914 -1.9588145017623901
