19
Generated by QM7 dataset
C 3.5970370769500732 -1.835188627243042 -0.15068675577640533
N 6.151890277862549 -1.190111756324768 0.6688874363899231
C 6.961448669433594 0.9300287365913391 -0.18273651599884033
N 9.305464744567871 1.824965238571167 0.3567802906036377
C 10.126947402954102 4.3999247550964355 -0.069163978099823
C 9.305351257324219 6.068817615509033 2.1306095123291016
C 12.99462604522705 4.430538654327393 -0.3652840554714203
H 3.4772660732269287 -3.8787574768066406 -0.44236600399017334
H 3.0509629249572754 -0.9266839027404785 -1.9299205541610718
H 2.232900381088257 -1.316099762916565 1.31305730342865
H 5.8392157554626465 2.195559501647949 -1.4083184003829956
H 10.251046180725098 0.7942140698432922 1.6691950559616089
H 9.286209106445312 5.121498107910156 -1.818691372871399
H 10.091836929321289 5.397492408752441 3.9260761737823486
H 7.24301815032959 6.080628395080566 2.3205647468566895
H 9.927903175354004 8.022001266479492 1.8464514017105103
H 13.940925598144531 3.7473080158233643 1.346373200416565
H 13.675759315490723 6.345681667327881 -0.7553046345710754
H 13.584409713745117 3.210153341293335 -1.931489109992981
