18
Generated by QM7 dataset
C 2.023745536804199 0.36541634798049927 -0.44990599155426025
N 4.720309257507324 0.2562468647956848 0.11085133254528046
C 6.098184108734131 -1.5280892848968506 -1.459700107574463
C 6.299383163452148 1.2948970794677734 -1.9073951244354248
C 8.632307052612305 2.624678373336792 -1.1755986213684082
C 8.326662063598633 4.7862229347229 0.6536751389503479
C 10.924922943115234 2.0605006217956543 -2.118741989135742
H 1.2715966701507568 2.2050836086273193 0.12353139370679855
H 1.031355857849121 -1.0848350524902344 0.6410896182060242
H 1.5539406538009644 0.0843762755393982 -2.448707103729248
H 5.061801433563232 -2.657200574874878 -2.817638397216797
H 7.646965980529785 -2.5011470317840576 -0.5384396910667419
H 5.360019207000732 2.0687966346740723 -3.560621976852417
H 6.910067081451416 6.123770713806152 -0.046506159007549286
H 10.091099739074707 5.834813117980957 0.9260603189468384
H 7.717773914337158 4.093165874481201 2.5056445598602295
H 11.170775413513184 0.5335074663162231 -3.4657766819000244
H 12.604605674743652 3.096202850341797 -1.561575174331665
