13
Generated by QM7 dataset
O -0.03700083866715431 0.04699748754501343 -2.3303346633911133
C 0.04656285047531128 -2.040015935897827 -0.529671311378479
C 2.38390851020813 -1.2346525192260742 0.8889649510383606
C 2.318788528442383 1.3113754987716675 0.9435213804244995
C -0.05829805135726929 2.0560030937194824 -0.44244158267974854
C -2.3463218212127686 1.1903574466705322 1.0199419260025024
C -2.2812774181365967 -1.355519413948059 0.9654799699783325
H 0.07744097709655762 -3.8446478843688965 -1.5191508531570435
H 3.754318952560425 -2.4636547565460205 1.7551020383834839
H 3.6255340576171875 2.5707266330718994 1.8628730773925781
H -0.12077239900827408 3.900527000427246 -1.3533462285995483
H -3.6856462955474854 2.381300687789917 1.9833998680114746
H -3.556918144226074 -2.6532888412475586 1.8758933544158936
