13
Generated by QM7 dataset
C 4.792931079864502 -1.7531745433807373 -1.6261471509933472
O 3.8102736473083496 0.5932984352111816 -0.7694587111473083
C 5.755311965942383 2.3157269954681396 0.037492167204618454
C 6.621411323547363 4.2079854011535645 -1.893052101135254
C 4.939460754394531 5.028183460235596 0.23598900437355042
H 3.2159926891326904 -2.9416043758392334 -2.234903573989868
H 5.795846939086914 -2.712040424346924 -0.09267216920852661
H 6.063507556915283 -1.4594166278839111 -3.231280565261841
H 7.112040996551514 1.663336992263794 1.4327714443206787
H 5.808337688446045 4.11096715927124 -3.770343780517578
H 8.582493782043457 4.789227485656738 -1.849796175956726
H 5.755519866943359 6.163701057434082 1.731877326965332
H 2.9859752655029297 5.471985340118408 -0.1922796368598938
