12
Generated by QM7 dataset
C 1.8831120729446411 -0.09233202040195465 -0.025171151384711266
N 4.630452632904053 0.009410835802555084 0.01273675449192524
C 5.524916648864746 2.619009256362915 0.04951082542538643
C 8.299922943115234 2.6502652168273926 -0.015835905447602272
C 10.568066596984863 2.676116704940796 -0.07052458077669144
H 1.2669669389724731 -2.0667366981506348 -0.039589762687683105
H 1.1104786396026611 0.8259993195533752 -1.7106367349624634
H 1.077143907546997 0.7974644303321838 1.659765362739563
H 5.328782081604004 -0.8595230579376221 -1.5576823949813843
H 4.869332790374756 3.574681520462036 1.7660813331604004
H 4.791003704071045 3.663479804992676 -1.5821354389190674
H 12.581947326660156 2.6862268447875977 -0.10831910371780396
