17
Generated by QM7 dataset
C 2.2243967056274414 -1.191755771636963 1.136538028717041
N 4.132132053375244 -0.7438151240348816 -0.8253756761550903
C 5.152527332305908 -3.1709604263305664 -1.6861270666122437
C 3.0147745609283447 0.7228769659996033 -2.9207229614257812
C 4.989614009857178 1.7817660570144653 -4.759880065917969
C 3.75970458984375 3.3336846828460693 -6.702480792999268
N 2.776442289352417 4.545868396759033 -8.244629859924316
H 1.5235350131988525 0.6033895611763 1.8940913677215576
H 3.048884153366089 -2.220031261444092 2.7338101863861084
H 0.6106272339820862 -2.2762506008148193 0.4224104881286621
H 5.920228481292725 -4.243436813354492 -0.08889272063970566
H 6.727538585662842 -2.897989511489868 -2.997804880142212
H 3.7152016162872314 -4.336222171783447 -2.6166470050811768
H 1.981245517730713 2.339272975921631 -2.124751329421997
H 1.6122575998306274 -0.4159665107727051 -3.944387674331665
H 6.028302192687988 0.25258079171180725 -5.689398288726807
H 6.372515678405762 2.928622007369995 -3.7280328273773193
