13
Generated by QM7 dataset
O 5.652794361114502 -2.139188766479492 -0.48010382056236267
C 4.362357139587402 0.1468317210674286 0.08637937903404236
C 6.245998382568359 2.1658339500427246 0.6126492023468018
O 6.7168049812316895 3.8704426288604736 -1.4374958276748657
C 5.438385963439941 4.894012928009033 0.7272611260414124
C 6.938015937805176 6.665989875793457 2.1112587451934814
C 8.193361282348633 8.156416893005371 3.2749710083007812
H 4.390249729156494 -3.336103677749634 -1.068621277809143
H 3.1803524494171143 -0.17423275113105774 1.7523808479309082
H 3.1410272121429443 0.6340031027793884 -1.5119887590408325
H 7.822332382202148 1.5381237268447876 1.7520407438278198
H 3.4510557651519775 5.335018157958984 0.510660707950592
H 9.318674087524414 9.477203369140625 4.294648170471191
