16
Generated by QM7 dataset
C 2.664022445678711 0.7831591963768005 -0.8389816880226135
C 4.9994215965271 -0.16746753454208374 0.426813542842865
C 5.346432209014893 -3.0237128734588623 0.6639552712440491
C 8.119075775146484 -3.4816880226135254 0.14295777678489685
C 9.276211738586426 -1.2662298679351807 -0.3244848847389221
C 7.5828094482421875 0.9280633926391602 -0.21949169039726257
N 6.340541362762451 1.5487627983093262 2.150394916534424
H 2.722414970397949 2.830129384994507 -1.1421505212783813
H 1.0028965473175049 0.3575173020362854 0.3186456263065338
H 2.4144275188446045 -0.1197330504655838 -2.6835811138153076
H 4.199594974517822 -4.037097454071045 -0.7293397784233093
H 4.834845542907715 -3.6717190742492676 2.5608813762664795
H 9.011744499206543 -5.314836025238037 0.1594928801059723
H 11.268342018127441 -1.0774084329605103 -0.7461583614349365
H 7.728847503662109 2.3717763423919678 -1.659765362739563
H 7.143826007843018 0.5745523571968079 3.609093427658081
