15
Generated by QM7 dataset
O 1.8498339653015137 -0.01307690516114235 0.12364478409290314
C 4.502971649169922 -0.047262050211429596 -0.02925296127796173
C 5.646652698516846 2.0761098861694336 1.576900839805603
C 8.295557975769043 1.1515612602233887 2.292445659637451
N 8.087177276611328 -1.5734049081802368 2.1850526332855225
C 5.840859889984131 -2.310454845428467 1.1710633039474487
N 4.956014633178711 -4.5713043212890625 1.2739777565002441
H 1.2208386659622192 -1.3067456483840942 -1.0153120756149292
H 5.0989155769348145 0.1129489317536354 -2.0064356327056885
H 4.509907245635986 2.378333806991577 3.2841739654541016
H 5.696749687194824 3.8797967433929443 0.5641588568687439
H 9.700474739074707 1.7954477071762085 0.9168573021888733
H 8.846734046936035 1.8067482709884644 4.174046039581299
H 8.770975112915039 -2.6566526889801025 3.610227346420288
H 3.209775447845459 -4.646345138549805 0.45313742756843567
