12
Generated by QM7 dataset
O 0.9410269260406494 5.216456890106201 0.12746202945709229
N 3.5597147941589355 5.556739807128906 -0.04998325556516647
C 4.653393745422363 3.3988425731658936 0.22531205415725708
O 7.18264102935791 3.062187910079956 0.15318119525909424
C 8.652149200439453 5.298527717590332 -0.26006412506103516
C 11.339112281799316 4.603297233581543 -0.3271493911743164
C 13.534936904907227 4.033166885375977 -0.38397344946861267
H 0.29710274934768677 6.928624153137207 -0.10733644664287567
H 3.676424503326416 1.5888439416885376 0.5482473373413086
H 8.318367004394531 6.642708778381348 1.2799493074417114
H 8.113576889038086 6.164759159088135 -2.062711715698242
H 15.480825424194336 3.515892267227173 -0.43372994661331177
