21
Generated by QM7 dataset
C 5.441069602966309 -1.642134189605713 2.563659191131592
C 4.785958290100098 -0.06513886153697968 0.2479698657989502
C 5.926880359649658 2.617440700531006 0.2125941962003708
C 4.767949104309082 4.261048793792725 2.3053336143493652
C 8.844390869140625 2.679518222808838 0.34436479210853577
C 10.126248359680176 1.2208386659622192 -1.7838636636734009
O 9.703120231628418 5.237659454345703 0.2141626626253128
H 4.501365661621094 -3.4823684692382812 2.448707103729248
H 4.8143229484558105 -0.730171263217926 4.309728145599365
H 7.474225997924805 -1.9903918504714966 2.6975462436676025
H 2.7213189601898193 0.08307236433029175 0.12098027020692825
H 5.37799072265625 -1.094718337059021 -1.4486451148986816
H 5.354274272918701 3.4941792488098145 -1.5815306901931763
H 5.411608695983887 3.6727771759033203 4.180962562561035
H 2.7016470432281494 4.155129909515381 2.2671611309051514
H 5.285204887390137 6.249381065368652 2.0570614337921143
H 9.495930671691895 1.9353630542755127 2.1616387367248535
H 9.50632381439209 1.915199637413025 -3.6341512203216553
H 9.744108200073242 -0.8070075511932373 -1.674543023109436
H 12.177584648132324 1.4937340021133423 -1.7080289125442505
H 9.135483741760254 5.941638946533203 -1.3851503133773804
