13
Generated by QM7 dataset
N 2.132725954055786 -0.1720973551273346 -0.37388232350349426
N 4.693871974945068 -0.09824686497449875 0.14358139038085938
C 6.148054122924805 -2.204573392868042 0.2825329601764679
C 8.53532600402832 -1.5492730140686035 0.7789261937141418
C 8.791383743286133 1.2851649522781372 0.9929943680763245
C 6.073901176452637 2.128530740737915 0.525891900062561
O 5.2809343338012695 4.294402599334717 0.49894440174102783
H 1.6622408628463745 1.5668097734451294 -1.0897294282913208
H 1.2082531452178955 -0.2522595524787903 1.318613052368164
H 5.367559432983398 -4.071566104888916 0.007917952723801136
H 10.090627670288086 -2.854374647140503 0.9884212613105774
H 9.399989128112793 1.8468292951583862 2.883476495742798
H 10.037450790405273 2.040337324142456 -0.4689355492591858
