15
Generated by QM7 dataset
C 4.534908294677734 -1.0754241943359375 2.6997382640838623
C 4.826379299163818 -0.11079464107751846 0.01704533025622368
C 5.6196675300598145 2.625396490097046 0.00978878140449524
O 4.124610900878906 4.391326904296875 0.0869273990392685
C 8.309428215026855 3.1241331100463867 0.0
C 10.520842552185059 3.5339956283569336 0.0
C 13.203913688659668 4.031277179718018 0.0
H 3.9143786430358887 -3.047334671020508 2.693502187728882
H 3.13906192779541 0.0413283109664917 3.741109609603882
H 6.324743270874023 -0.9627776741981506 3.7306783199310303
H 3.0305538177490234 -0.26618683338165283 -1.0034445524215698
H 6.213325023651123 -1.245499610900879 -1.0207544565200806
H 13.584598541259766 6.063753128051758 -0.024944385513663292
H 14.115781784057617 3.197227716445923 -1.6581401824951172
H 14.107826232910156 3.23972749710083 1.6831601858139038
