15
Generated by QM7 dataset
C 4.604695796966553 -1.7486202716827393 -1.388211727142334
O 3.8658695220947266 0.6079626679420471 -0.3341413736343384
C 5.975937843322754 2.27763032913208 0.09089582413434982
C 6.540266513824463 4.131375789642334 -1.9844202995300293
C 5.295560836791992 5.02984619140625 0.3972204327583313
N 6.708433151245117 6.6510233879089355 2.139094352722168
H 2.9109530448913574 -2.8942477703094482 -1.6828011274337769
H 5.867429733276367 -2.7478318214416504 -0.091103695333004
H 5.539694309234619 -1.4613251686096191 -3.2099645137786865
H 7.548870086669922 1.570249080657959 1.2011098861694336
H 5.39376974105835 4.063742637634277 -3.6800148487091064
H 8.495283126831055 4.632795810699463 -2.3209049701690674
H 3.2989327907562256 5.502145290374756 0.25076666474342346
H 8.540730476379395 6.0863356590271 2.309736728668213
H 5.951730251312256 6.538490295410156 3.9086527824401855
