10
Generated by QM7 dataset
N 1.7893249988555908 -0.20975960791110992 0.0042140893638134
C 4.196136951446533 -0.05928070843219757 -0.002721205586567521
C 5.800646781921387 2.204497814178467 -0.0030613562557846308
C 8.195307731628418 1.4209039211273193 -0.011791891418397427
C 7.97507905960083 -1.319690227508545 -0.01651620678603649
N 5.688340187072754 -2.1586530208587646 -0.011319459415972233
H 1.0007423162460327 1.5509737730026245 0.01003444567322731
H 5.098273277282715 4.109341621398926 0.002777897519990802
H 9.916376113891602 2.494816541671753 -0.014834349974989891
H 9.68628215789795 -2.496762752532959 -0.02396172657608986
