12
Generated by QM7 dataset
N 1.926386833190918 -0.056030381470918655 -0.04832029715180397
C 4.452856063842773 0.1104355975985527 -0.017612246796488762
C 6.02985143661499 2.17511248588562 -0.0010771439410746098
C 8.547287940979004 1.2603716850280762 0.025322331115603447
C 8.426648139953613 -1.3398536443710327 0.023659370839595795
N 5.9243292808532715 -2.0163755416870117 -0.002777897519990802
H 0.8250355124473572 1.516883134841919 0.013058007694780827
H 0.9536502957344055 -1.7061392068862915 0.03501662611961365
H 5.443337440490723 4.132226467132568 -0.009184069000184536
H 10.258662223815918 2.3789572715759277 0.04146059229969978
H 9.894133567810059 -2.7623260021209717 0.03660399466753006
H 5.260071754455566 -3.8034706115722656 -0.015401268377900124
