9
Generated by QM7 dataset
N 1.9174673557281494 -0.02866714634001255 0.034374117851257324
C 4.667623519897461 0.0 0.0
C 5.578509330749512 2.5722384452819824 0.0
C 6.329259872436523 4.692322254180908 0.0
H 1.306122064590454 -1.8447695970535278 -0.14061452448368073
H 1.2652472257614136 0.9178211092948914 -1.510118007659912
H 5.3414812088012695 -1.005391001701355 -1.6787570714950562
H 5.3755717277526855 -1.0199419260025024 1.654644250869751
H 6.987961769104004 6.593405723571777 0.011791891418397427
