17
Generated by QM7 dataset
C 1.9160311222076416 0.07094031572341919 0.016629589721560478
C 4.722387790679932 -0.005706972908228636 -0.052912332117557526
C 6.197167873382568 -2.059215784072876 -0.20008420944213867
C 8.945906639099121 -1.3839409351348877 -0.13723191618919373
C 8.907488822937012 1.4705092906951904 -0.6426202654838562
O 9.303292274475098 1.938122034072876 -3.279430627822876
C 6.260473728179932 2.374157428741455 0.12681952118873596
H 1.099461555480957 -1.8257211446762085 -0.11447960883378983
H 1.187617301940918 1.1874849796295166 -1.5648443698883057
H 1.2616567611694336 0.9271185398101807 1.781973958015442
H 5.521609783172607 -3.986377239227295 -0.28215500712394714
H 9.715422630310059 -1.815856695175171 1.7341638803482056
H 10.001469612121582 -2.418320417404175 -1.5827022790908813
H 10.401033401489258 2.465336799621582 0.3838789761066437
H 7.964137554168701 1.0556577444076538 -4.184250354766846
H 5.546988487243652 3.8404903411865234 -1.1451174020767212
H 6.237532615661621 3.0646066665649414 2.077829360961914
