12
Generated by QM7 dataset
C 1.8676162958145142 0.015363473445177078 -0.014758761040866375
N 4.588179588317871 0.046676237136125565 -0.0019464179640635848
C 6.108161926269531 2.1305718421936035 0.006103815510869026
C 8.529694557189941 1.1867858171463013 0.01729099452495575
N 8.508529663085938 -1.404331088066101 0.01619495265185833
C 6.107670307159424 -2.0370869636535645 0.004478651098906994
H 1.1531864404678345 1.9529563188552856 0.004421959165483713
H 1.2164167165756226 -0.989895224571228 1.6678155660629272
H 1.2327439785003662 -0.9510424733161926 -1.7260569334030151
H 5.383489608764648 4.040631294250488 0.0033070207573473454
H 10.287083625793457 2.234109878540039 0.026078220456838608
H 5.380598545074463 -3.949263095855713 0.0002267671370645985
