16
Generated by QM7 dataset
N 1.9040124416351318 0.06706637889146805 -0.2705143094062805
C 4.636216163635254 -0.055614639073610306 0.1324131041765213
C 5.690645694732666 2.019077777862549 1.8341304063796997
O 8.091655731201172 1.1136722564697266 2.730692148208618
C 7.879251003265381 -1.4992520809173584 2.7092626094818115
C 9.713286399841309 -2.9567410945892334 3.6513099670410156
C 5.488539695739746 -2.4220051765441895 1.5186028480529785
H 1.3497179746627808 -1.392784833908081 -1.40013587474823
H 1.4581693410873413 1.6855034828186035 -1.2144514322280884
H 5.5905280113220215 0.028440378606319427 -1.7107880115509033
H 4.481428623199463 2.3822643756866455 3.4770772457122803
H 5.964221477508545 3.7954583168029785 0.8119775056838989
H 9.568174362182617 -5.000272274017334 3.641143321990967
H 11.390758514404297 -2.1157751083374023 4.476212978363037
H 5.784584045410156 -4.006105899810791 0.22056883573532104
H 4.143092155456543 -2.9837453365325928 2.987184524536133
