13
Generated by QM7 dataset
C 2.3307504653930664 0.11565124243497849 -0.4918390214443207
N 4.950893402099609 0.7569109201431274 -0.0031558426562696695
C 6.795530796051025 -1.2882262468338013 0.23927712440490723
C 6.487883567810059 -2.746168851852417 2.5934791564941406
N 6.190761566162109 -3.937622308731079 4.412907600402832
C 5.621821880340576 3.157127618789673 0.7548511028289795
O 7.728564262390137 3.785121440887451 1.4714163541793823
H 1.2158687114715576 1.8194093704223633 -0.84644615650177
H 1.551181674003601 -0.855233371257782 1.1577407121658325
H 2.2305192947387695 -1.1190202236175537 -2.145632743835449
H 8.712677001953125 -0.5109063386917114 0.15834015607833862
H 6.575717926025391 -2.5272819995880127 -1.4051814079284668
H 4.060246467590332 4.52952241897583 0.6116287708282471
