17
Generated by QM7 dataset
C 3.5058765411376953 -0.4797636568546295 0.48348644375801086
C 1.6683635711669922 -2.627777576446533 1.163050889968872
C -0.16571009159088135 -1.6178700923919678 -0.8781935572624207
C -2.744978427886963 -1.0236835479736328 -0.002456644084304571
C -2.8545446395874023 1.360376000404358 0.8321787118911743
C -0.38767731189727783 2.744335889816284 0.6298079490661621
C 1.3142666816711426 0.917499840259552 -0.8454634547233582
H 5.004750728607178 -1.0693204402923584 -0.8190072774887085
H 4.367705345153809 0.5008341073989868 2.084273338317871
H 2.394566535949707 -4.534492492675781 0.8293818831443787
H 0.972679853439331 -2.523691415786743 3.1124355792999268
H -0.08586915582418442 -2.6293649673461914 -2.6815590858459473
H -4.303983688354492 -2.3436760902404785 -0.026947494596242905
H -4.5444135665893555 2.2305192947387695 1.5868974924087524
H 0.36736276745796204 3.1653668880462646 2.5090272426605225
H -0.6371211409568787 4.516294479370117 -0.40761393308639526
H 1.799983024597168 1.6456868648529053 -2.723813533782959
