17
Generated by QM7 dataset
C 5.432830333709717 -2.094761371612549 -0.8901365995407104
N 4.461624622344971 0.20679272711277008 0.2657143771648407
C 6.344491004943848 2.2365097999572754 0.30401915311813354
C 6.547504425048828 3.9857537746429443 -1.9295804500579834
C 5.426594257354736 4.9229254722595215 0.507448136806488
C 6.824424743652344 6.78670597076416 2.0882985591888428
H 3.952003240585327 -3.5381531715393066 -0.9119629263877869
H 7.045862674713135 -2.8447558879852295 0.16671164333820343
H 6.01082181930542 -1.7599586248397827 -2.848365306854248
H 3.8655292987823486 -0.18611912429332733 2.0557007789611816
H 8.095417022705078 1.782049536705017 1.284352421760559
H 5.277646064758301 3.6917312145233154 -3.5101664066314697
H 8.41530990600586 4.6273722648620605 -2.469871997833252
H 3.4056077003479004 5.256235599517822 0.5517433285713196
H 8.87024211883545 6.476601600646973 2.036557912826538
H 6.204254150390625 6.655728816986084 4.057714462280273
H 6.449200630187988 8.708953857421875 1.421716570854187
