19
Generated by QM7 dataset
N 3.6371748447418213 -1.0696039199829102 -2.4314727783203125
C 4.189957618713379 0.006727424915879965 0.06725535541772842
C 5.781862735748291 2.401747465133667 -0.1516883224248886
N 8.071568489074707 2.069533586502075 -1.7160414457321167
C 4.450493812561035 4.886435031890869 -0.9642327427864075
C 6.008233070373535 6.308170318603516 1.0478153228759766
C 6.532613277435303 3.745323896408081 2.3372511863708496
H 2.5817248821258545 -2.6623029708862305 -2.1929893493652344
H 5.3134942054748535 -1.6721431016921997 -3.172661304473877
H 5.188432216644287 -1.4153481721878052 1.19648015499115
H 2.4037694931030273 0.41025954484939575 1.03496515750885
H 9.222865104675293 3.6118903160095215 -1.7891926765441895
H 7.6134796142578125 1.6987125873565674 -3.553818941116333
H 2.4167518615722656 4.913212299346924 -0.5623636245727539
H 4.7238993644714355 5.5179057121276855 -2.9147512912750244
H 7.7035441398620605 7.230904579162598 0.2976318597793579
H 4.956562519073486 7.676370143890381 2.184069871902466
H 8.464971542358398 3.4680254459381104 3.02093505859375
H 5.2370171546936035 3.366528272628784 3.911487340927124
