17
Generated by QM7 dataset
N 4.216470241546631 -1.7885690927505493 1.947192668914795
C 4.162783145904541 -0.21461619436740875 -0.3214991092681885
C 5.8531999588012695 2.1164743900299072 -0.06763330101966858
C 8.704910278320312 1.6121631860733032 -0.23064108192920685
C 9.864181518554688 0.3853529393672943 2.108083963394165
O 9.337798118591309 -2.2407994270324707 2.2032127380371094
H 3.0637941360473633 -3.314579725265503 1.662429928779602
H 3.4048895835876465 -0.8140184283256531 3.405418872833252
H 2.2112820148468018 0.38920798897743225 -0.6577380895614624
H 4.749467372894287 -1.34208345413208 -1.9550350904464722
H 5.412477970123291 3.1406493186950684 1.6815539598464966
H 5.364233493804932 3.4018471240997314 -1.6221976280212402
H 9.638699531555176 3.4404165744781494 -0.5102260708808899
H 9.101601600646973 0.45746490359306335 -1.90372896194458
H 9.198657989501953 1.2775115966796875 3.8515453338623047
H 11.921488761901855 0.585663914680481 2.042189121246338
H 7.482616424560547 -2.395379066467285 2.2476024627685547
