17
Generated by QM7 dataset
C 3.7807562351226807 -0.48951464891433716 -2.564830780029297
C 4.821145057678223 0.4286276698112488 -0.048698242753744125
C 6.483423709869385 2.767352819442749 -0.3256753981113434
O 5.035043239593506 4.833503723144531 -1.3149281740188599
C 5.786473751068115 6.946897983551025 0.17606578767299652
C 6.320491313934326 5.784073829650879 2.7137601375579834
O 7.5082221031188965 3.443232297897339 2.0939300060272217
H 2.6422529220581055 -2.1931216716766357 -2.2865874767303467
H 5.314760208129883 -0.9498708248138428 -3.872936964035034
H 2.57851243019104 0.9414993524551392 -3.448258876800537
H 5.902238368988037 -1.0892947912216187 0.8597686886787415
H 3.2316205501556396 0.850490152835846 1.2161710262298584
H 8.0662202835083 2.392242193222046 -1.6064183712005615
H 7.494256973266602 7.757949352264404 -0.6664119362831116
H 4.298673629760742 8.377514839172363 0.22580337524414062
H 7.551817893981934 6.937864780426025 3.9044198989868164
H 4.572664737701416 5.3627028465271 3.7402026653289795
