17
Generated by QM7 dataset
C 2.115699529647827 1.2613166570663452 -1.645592451095581
N 4.219493865966797 0.8626033067703247 -0.4720346927642822
N 5.801836967468262 2.8800182342529297 -0.5366066098213196
C 8.370938301086426 2.397911310195923 0.37157684564590454
C 9.88305950164795 4.771388530731201 0.05245879665017128
C 10.218467712402344 6.599812030792236 2.215949535369873
C 12.41444206237793 5.025764465332031 1.3390599489212036
H 0.6818887591362 -0.2436990886926651 -1.7160602807998657
H 1.6542662382125854 3.0479960441589355 -2.619443893432617
H 5.079905033111572 4.360448360443115 0.4772881269454956
H 9.239324569702148 0.8878122568130493 -0.741811990737915
H 8.325623512268066 1.7967894077301025 2.3512351512908936
H 9.752007484436035 5.524614334106445 -1.851496934890747
H 9.38957691192627 6.144917011260986 4.033828258514404
H 10.244545936584473 8.603431701660156 1.7857911586761475
H 13.918871879577637 5.960215091705322 0.30753403902053833
H 13.055267333984375 3.5017192363739014 2.550506591796875
