18
Generated by QM7 dataset
C 1.9312056303024292 -0.026116015389561653 -0.017593350261449814
C 4.796578407287598 -0.03666068613529205 0.15193398296833038
C 5.836248874664307 2.200737237930298 1.6450066566467285
C 8.388134956359863 1.2091034650802612 2.348702907562256
C 10.493762969970703 2.592175245285034 2.5813281536102295
C 8.23538875579834 -1.6149410009384155 2.486879587173462
N 5.709542751312256 -2.2695233821868896 1.5290151834487915
H 1.2516978979110718 -1.6495985984802246 -1.1079463958740234
H 1.261430025100708 1.6947630643844604 -0.9531211853027344
H 1.054051399230957 -0.10945294052362442 1.8570905923843384
H 5.596612930297852 -0.03331587091088295 -1.763246774673462
H 4.725883960723877 2.5704054832458496 3.3556432723999023
H 5.922004699707031 3.9199345111846924 0.49803730845451355
H 12.300605773925781 1.7166650295257568 3.003077268600464
H 10.457725524902344 4.630774021148682 2.356696367263794
H 9.703139305114746 -2.493795871734619 1.3208997249603271
H 8.417426109313965 -2.2793688774108887 4.438683032989502
H 5.83150577545166 -3.77780818939209 0.3407932221889496
