16
Generated by QM7 dataset
C 1.8526874780654907 -0.08286449313163757 0.052987921983003616
N 4.586573123931885 0.10079798847436905 0.33612558245658875
C 5.52032470703125 2.7092058658599854 0.13553115725517273
C 4.775923728942871 4.307158470153809 2.4275989532470703
C 8.404557228088379 2.6309900283813477 -0.0978500172495842
H 1.3013032674789429 -2.075901985168457 0.07521110028028488
H 1.2166812419891357 0.7269020676612854 -1.74002206325531
H 0.8539294600486755 0.8356369137763977 1.6117663383483887
H 5.4142165184021 -0.9737191796302795 -1.033963680267334
H 4.774298667907715 3.593616485595703 -1.5866329669952393
H 5.4090576171875 3.4339914321899414 4.193661212921143
H 2.7293503284454346 4.575688362121582 2.5386769771575928
H 5.6321210861206055 6.188135147094727 2.3107948303222656
H 9.277100563049316 1.759127140045166 1.564353108406067
H 9.1724853515625 4.5430908203125 -0.29039421677589417
H 8.98742389678955 1.5559816360473633 -1.7675553560256958
