9
Generated by QM7 dataset
N 1.889726161956787 0.0 0.0
C 4.064819812774658 0.0 0.0
C 6.79358434677124 0.0 0.0
C 7.704470157623291 2.5722384452819824 0.0
C 8.455220222473145 4.692322254180908 0.0
C 9.431056022644043 7.427549839019775 0.0
N 10.184527397155762 9.483949661254883 0.0
H 7.505954265594482 -1.0104176998138428 -1.660370111465454
H 7.505954265594482 -1.0104176998138428 1.660370111465454
