18
Generated by QM7 dataset
C 1.8762712478637695 -0.1045207530260086 0.49709245562553406
C 4.4816179275512695 0.23477958142757416 -0.536568820476532
C 5.970344066619873 2.2626256942749023 -0.19600239396095276
C 5.309204578399658 4.681248664855957 1.1104786396026611
C 6.731393337249756 6.567421913146973 -0.5236053466796875
N 9.113242149353027 5.303573131561279 -1.1707987785339355
C 8.53067684173584 2.5934600830078125 -1.3693711757659912
H 1.6704233884811401 -2.0209109783172607 1.2495057582855225
H 0.48110538721084595 0.15140485763549805 -1.0083011388778687
H 1.4474735260009766 1.212448239326477 2.030113935470581
H 5.19495153427124 -1.3339576721191406 -1.6605778932571411
H 6.0470290184021 4.670099258422852 3.045482635498047
H 3.286271572113037 5.095986843109131 1.1441913843154907
H 5.6597676277160645 6.988301753997803 -2.2497568130493164
H 7.076381683349609 8.346409797668457 0.47105202078819275
H 9.7659912109375 5.956908226013184 -2.8587398529052734
H 8.528031349182129 1.996457815170288 -3.351240396499634
H 9.96356201171875 1.5198311805725098 -0.33434924483299255
