17
Generated by QM7 dataset
C 1.7942193746566772 0.04875493422150612 0.2613491117954254
N 4.25706148147583 -0.6519555449485779 -0.7491819262504578
C 4.9721150398254395 -3.154860019683838 -0.713050365447998
N 7.160871505737305 -4.139275074005127 -1.10019850730896
C 6.24254035949707 1.2940844297409058 -0.579824686050415
C 7.882425785064697 1.9216058254241943 -2.819943904876709
C 5.982173919677734 3.8049447536468506 -1.89592444896698
H 1.2662488222122192 1.9669970273971558 -0.3053608536720276
H 1.8100930452346802 -0.04257553070783615 2.3285205364227295
H 0.321990430355072 -1.2242779731750488 -0.44395336508750916
H 3.383894681930542 -4.4407429695129395 -0.2928319573402405
H 8.418238639831543 -2.7270259857177734 -1.4982126951217651
H 7.144922256469727 1.3154006004333496 1.2679117918014526
H 7.50051212310791 0.9734545946121216 -4.595587253570557
H 9.864237785339355 2.305692672729492 -2.478262424468994
H 6.6740593910217285 5.469151020050049 -0.9238492846488953
H 4.34412145614624 4.14031457901001 -3.077362298965454
