14
Generated by QM7 dataset
O 1.8576574325561523 -0.0531013049185276 0.45311853289604187
C 4.145737648010254 -0.014853247441351414 0.11457409709692001
C 5.580474853515625 2.349553108215332 0.001870828913524747
C 8.056753158569336 2.5499587059020996 -0.4168168902397156
C 8.806672096252441 5.255064010620117 -0.38998278975486755
N 6.476110458374023 6.7021403312683105 0.09144384413957596
C 4.390230655670166 4.854838848114014 0.3544181287288666
H 5.253551959991455 -1.7616405487060547 -0.1374019831418991
H 9.361211776733398 1.012553095817566 -0.7255792617797852
H 10.18420696258545 5.622029781341553 1.1079086065292358
H 9.636885643005371 5.800344467163086 -2.2050836086273193
H 6.110769748687744 7.824826717376709 -1.4290486574172974
H 2.9392800331115723 5.208482265472412 -1.0783154964447021
H 3.541271209716797 5.034249305725098 2.231879949569702
