21
Generated by QM7 dataset
C 2.3823020458221436 -0.9134369492530823 -0.5153850317001343
C 5.272014617919922 -0.8048154711723328 -0.5234352350234985
C 6.273361682891846 -1.5442842245101929 -3.132636785507202
C 6.164759159088135 1.841443657875061 0.2865958511829376
C 8.985496520996094 2.0175094604492188 0.5587731003761292
C 10.556482315063477 3.279015064239502 -1.454805612564087
C 10.189043998718262 4.550271511077881 1.0572829246520996
H 1.632893443107605 -0.45247602462768555 1.3574092388153076
H 1.7158335447311401 -2.80854868888855 -1.0115704536437988
H 1.5777701139450073 0.4241112470626831 -1.874891757965088
H 5.969493865966797 -2.1959750652313232 0.8481847047805786
H 5.702815532684326 -0.17306111752986908 -4.573401927947998
H 5.549596309661865 -3.400448799133301 -3.6937153339385986
H 8.337849617004395 -1.663696050643921 -3.1369643211364746
H 5.323301792144775 2.29994797706604 2.125507354736328
H 5.469717979431152 3.264312982559204 -1.0526719093322754
H 9.781959533691406 0.41379332542419434 1.5571532249450684
H 9.611770629882812 4.089291572570801 -3.08225679397583
H 12.39802074432373 2.483837127685547 -1.8709989786148071
H 11.784690856933594 4.6152024269104 2.340898275375366
H 8.990296363830566 6.209999084472656 1.1300562620162964
