17
Generated by QM7 dataset
C 1.8404988050460815 0.1172386109828949 -0.0035526850260794163
C 4.641602039337158 0.04605262726545334 0.003836143994703889
C 6.264820098876953 2.0011632442474365 0.008333692327141762
C 8.82543659210205 1.0493649244308472 0.010091137140989304
C 11.08464241027832 2.712437391281128 0.007615596521645784
C 8.773639678955078 -1.488537311553955 0.00616050697863102
C 6.087771415710449 -2.4003679752349854 0.004932185169309378
H 1.1320403814315796 2.0604817867279053 -0.0015495754778385162
H 1.0910333395004272 -0.8371486663818359 1.6708014011383057
H 1.1008222103118896 -0.8304401636123657 -1.6854277849197388
H 5.770430088043213 3.980273485183716 0.0067085279151797295
H 10.557049751281738 4.712429046630859 -0.06570577621459961
H 12.277664184570312 2.3187317848205566 -1.6359736919403076
H 12.20434284210205 2.419926643371582 1.7224286794662476
H 10.403509140014648 -2.7145915031433105 0.0049510826356709
H 5.6870551109313965 -3.5172150135040283 -1.6884891986846924
H 5.6851277351379395 -3.5165157318115234 1.698372483253479
