15
Generated by QM7 dataset
N 4.382917404174805 -0.8511515259742737 -1.7131123542785645
C 4.667850494384766 -0.0505879670381546 0.918936014175415
C 6.555894374847412 2.0521292686462402 1.1397126913070679
N 7.640975475311279 3.2251577377319336 -1.1258610486984253
C 5.840292930603027 4.706929683685303 0.35706374049186707
C 6.785061836242676 6.785741806030273 1.808864712715149
C 7.575250625610352 8.532718658447266 3.023977518081665
H 3.0963730812072754 -2.284055233001709 -1.7872651815414429
H 6.054436683654785 -1.632515549659729 -2.282259941101074
H 5.289834976196289 -1.666379451751709 2.053508758544922
H 2.836913585662842 0.5643100142478943 1.662014126777649
H 7.817154407501221 1.8212614059448242 2.736398935317993
H 6.731677055358887 2.4833648204803467 -2.6684067249298096
H 4.009942054748535 4.988366603851318 -0.5265910625457764
H 8.293989181518555 10.080876350402832 4.088932514190674
