13
Generated by QM7 dataset
O 1.8898017406463623 -0.006840808782726526 -0.005499103106558323
C 4.573137283325195 0.0 0.0
C 5.484023094177246 2.5722384452819824 0.0
C 6.234773635864258 4.692322254180908 0.0
C 7.145659446716309 7.264560699462891 0.0
C 5.14031982421875 9.178380966186523 -0.15669609606266022
C 3.5226194858551025 10.767130851745605 -0.2834589183330536
H 1.368161678314209 -1.7652688026428223 -0.010790335945785046
H 5.2302703857421875 -1.018997073173523 -1.6751288175582886
H 5.223127365112305 -1.0166915655136108 1.6793428659439087
H 8.450325965881348 7.534224510192871 -1.5874077081680298
H 8.257535934448242 7.602519512176514 1.7158713340759277
H 2.0869758129119873 12.177924156188965 -0.3953306972980499
