19
Generated by QM7 dataset
C 1.5049779415130615 -0.04210309684276581 0.48450687527656555
C 4.32977819442749 0.13118478655815125 0.0396086610853672
C 5.793068885803223 2.038882255554199 1.7052888870239258
C 7.8678178787231445 0.023413706570863724 2.1101248264312744
C 5.9607062339782715 -1.9972137212753296 1.2037744522094727
C 10.276576042175293 0.19874249398708344 0.6607994437217712
C 10.468572616577148 1.2021682262420654 -1.6526978015899658
H 0.7009372115135193 -1.6353689432144165 -0.5617588758468628
H 0.5612486600875854 1.6823853254318237 -0.15985193848609924
H 1.0611001253128052 -0.3036789894104004 2.4883534908294678
H 4.723237991333008 0.3906064033508301 -1.9817558526992798
H 4.817440986633301 2.547161817550659 3.463697910308838
H 6.344812393188477 3.79559063911438 0.765641450881958
H 8.326228141784668 -0.19796770811080933 4.123269081115723
H 6.660415172576904 -3.3980109691619873 -0.1468317210674286
H 5.052050590515137 -3.009275436401367 2.7682597637176514
H 11.95699691772461 -0.5574691891670227 1.5707025527954102
H 8.870166778564453 1.9839290380477905 -2.668142080307007
H 12.285600662231445 1.2634520530700684 -2.604212760925293
