18
Generated by QM7 dataset
C 2.2736239433288574 0.2874462306499481 0.2591759264469147
C 4.969337463378906 -0.5628171563148499 -0.15446621179580688
C 5.237451553344727 -2.928262948989868 -1.719159483909607
N 4.083301544189453 -5.082456111907959 -0.44724148511886597
C 6.880625247955322 0.8218796849250793 0.8056658506393433
C 9.554984092712402 0.3289635181427002 0.5770845413208008
C 11.31435775756836 1.8307856321334839 1.6060971021652222
H 2.164435625076294 2.0912842750549316 1.2691211700439453
H 1.225525140762329 -1.1061700582504272 1.3717143535614014
H 1.3157596588134766 0.5386853218078613 -1.5578335523605347
H 7.2043352127075195 -3.3905088901519775 -2.1404550075531006
H 4.305722236633301 -2.6406843662261963 -3.546184539794922
H 4.9952263832092285 -5.359584331512451 1.2269991636276245
H 4.394255638122559 -6.665555477142334 -1.494017481803894
H 6.401504039764404 2.509197235107422 1.8868159055709839
H 10.187211036682129 -1.3195579051971436 -0.4662143290042877
H 10.828962326049805 3.51063871383667 2.677307367324829
H 13.307470321655273 1.3973201513290405 1.3908573389053345
