16
Generated by QM7 dataset
N 5.348378658294678 -2.002108097076416 -1.0808855295181274
C 4.152238368988037 0.15042220056056976 0.15463629364967346
C 6.030097007751465 2.2808427810668945 0.32182034850120544
O 8.216774940490723 1.7650986909866333 1.8806743621826172
C 6.506648540496826 3.9551212787628174 -1.9264813661575317
C 5.135840892791748 4.989425182342529 0.3366547226905823
O 6.560373306274414 6.68747615814209 1.911987066268921
H 4.296878337860107 -3.5834121704101562 -0.7831780910491943
H 7.061774253845215 -2.3069210052490234 -0.24808324873447418
H 3.551910400390625 -0.3810443878173828 2.063070774078369
H 2.466073751449585 0.7043198347091675 -0.9096196889877319
H 7.7235565185546875 1.6769429445266724 3.6512532234191895
H 5.425668239593506 3.60676908493042 -3.630976438522339
H 8.429426193237305 4.558832168579102 -2.2820332050323486
H 3.129953384399414 5.357543468475342 0.13041000068187714
H 8.309844017028809 6.118989944458008 2.0369925498962402
