19
Generated by QM7 dataset
C 1.8288580179214478 0.08558569848537445 0.001965315081179142
C 4.705002307891846 -0.008314794860780239 0.05610596761107445
C 5.823946952819824 2.112203598022461 1.6718406677246094
C 8.49630355834961 1.2014501094818115 2.224321126937866
C 8.195760726928711 -1.619646430015564 2.726043224334717
C 5.877010345458984 -2.336986541748047 1.2330652475357056
C 4.995056629180908 -4.7049078941345215 1.090938925743103
H 1.0580576658248901 -1.3716765642166138 -1.2488633394241333
H 1.1762789487838745 1.9200751781463623 -0.6994632482528687
H 1.0219449996948242 -0.19974404573440552 1.8872127532958984
H 5.428843021392822 0.1744973063468933 -1.8801263570785522
H 4.771520614624023 2.345792531967163 3.443610191345215
H 5.820224285125732 3.9286084175109863 0.6827202439308167
H 9.711585998535156 1.5104581117630005 0.5718311071395874
H 9.345337867736816 2.1916286945343018 3.829360008239746
H 9.873611450195312 -2.6624350547790527 2.1208395957946777
H 7.8715972900390625 -1.9564145803451538 4.742173194885254
H 3.3041861057281494 -5.169024467468262 0.027268748730421066
H 5.9538655281066895 -6.251176357269287 2.0401105880737305
