12
Generated by QM7 dataset
C 2.1662685871124268 0.13052338361740112 -0.011584021151065826
S 5.515128135681152 -0.07464418560266495 -0.041441693902015686
O 6.257809162139893 -1.2254685163497925 2.3319599628448486
O 6.218106269836426 -1.1782253980636597 -2.449084997177124
C 6.41966438293457 3.1517419815063477 -0.017083123326301575
C 9.169952392578125 3.2089061737060547 -0.03894725441932678
N 11.351792335510254 3.4051353931427 -0.054764263331890106
H 1.5435283184051514 1.1483298540115356 -1.6941962242126465
H 1.5717419385910034 1.1145793199539185 1.701055884361267
H 1.4029704332351685 -1.7867927551269531 -0.02430187724530697
H 5.649884223937988 4.025022029876709 1.6883946657180786
H 5.622237682342529 4.058243751525879 -1.6922308206558228
