13
Generated by QM7 dataset
C 5.378916263580322 -2.4209659099578857 0.9147975444793701
N 4.492975234985352 -0.025416815653443336 -0.06786006689071655
C 5.943566799163818 2.1003739833831787 -0.01164071261882782
C 5.117321491241455 4.5619120597839355 -0.38072311878204346
N 6.9189300537109375 6.448123455047607 -0.24585336446762085
C 9.125770568847656 5.406657695770264 0.2015959769487381
S 9.160541534423828 2.185203790664673 0.4919146001338959
H 3.912904739379883 -3.8560051918029785 0.6472312211990356
H 5.776307106018066 -2.2929370403289795 2.9412832260131836
H 7.069786548614502 -3.07430100440979 -0.08216529339551926
H 2.5812525749206543 0.1754043847322464 -0.05591699481010437
H 3.176157236099243 5.0860090255737305 -0.7594053149223328
H 10.83608627319336 6.511259078979492 0.3784743547439575
