13
Generated by QM7 dataset
O 1.9946436882019043 0.5117756128311157 -1.3665364980697632
C 4.025343418121338 0.249689519405365 -0.278318852186203
C 5.940032958984375 2.306448459625244 0.013965075835585594
C 6.8659987449646 2.5091404914855957 2.7205820083618164
N 7.208247184753418 5.23348331451416 2.9655282497406006
N 5.6594085693359375 6.528644561767578 1.3864353895187378
C 4.941180229187012 4.920846939086914 -0.31082215905189514
H 4.603977680206299 -1.626695156097412 0.42637890577316284
H 7.480424404144287 2.0008420944213867 -1.332200288772583
H 8.637617111206055 1.4887073040008545 3.0222012996673584
H 5.463500499725342 1.8288769721984863 4.084397315979004
H 7.1028947830200195 5.868450164794922 4.786317348480225
H 3.7443034648895264 5.425063610076904 -1.9332654476165771
