11
Generated by QM7 dataset
N 1.8828853368759155 0.21070446074008942 -0.0
C 4.43339204788208 -0.10535223037004471 -0.0
C 5.741819381713867 -2.273472785949707 0.0
C 4.580752849578857 -4.687106609344482 -0.0
N 3.6320536136627197 -6.6647047996521 -0.0
C 5.76113224029541 2.2381160259246826 0.0
C 6.871044158935547 4.217698574066162 0.0
H 1.1364434957504272 1.9749528169631958 0.0
H 0.7018253803253174 -1.297202467918396 0.0
H 7.790811538696289 -2.249530076980591 0.0
H 7.85086727142334 5.976089000701904 0.0
