9
Generated by QM7 dataset
C 1.8982677459716797 -0.0008503767312504351 0.00034015069832094014
C 4.168376922607422 0.0032503290567547083 0.0008503767312504351
C 6.851353168487549 0.001851931563578546 0.0014928836608305573
N 8.166092872619629 2.15653657913208 0.003420404391363263
O 10.671075820922852 1.2912309169769287 0.0032314315903931856
C 10.538416862487793 -1.2763210535049438 0.0012283220421522856
N 8.231155395507812 -2.1764163970947266 -1.8897260815720074e-05
H -0.11398828029632568 -0.0034015069250017405 -0.0005480205873027444
H 12.31065845489502 -2.286776542663574 0.000907068548258394
