17
Generated by QM7 dataset
C -2.364614248275757 -1.4466420412063599 -1.0001375675201416
C -2.369546413421631 1.4443176984786987 -0.9884023666381836
C -0.002853486454114318 2.0431530475616455 0.5514788031578064
C 2.3782958984375 1.4497790336608887 -0.9693539142608643
C 2.3833227157592773 -1.4409539699554443 -0.9770451188087463
C 0.0029857673216611147 -2.05010724067688 0.5374003052711487
O -0.007955746725201607 -0.009184069000184536 2.3569798469543457
H -2.3208670616149902 -2.250077962875366 -2.9041123390197754
H -4.0588860511779785 -2.143308401107788 -0.03443080931901932
H -4.064838886260986 2.126943349838257 -0.014702069573104382
H -2.331430673599243 2.263287305831909 -2.8859331607818604
H -0.008617151528596878 3.897144317626953 1.4576213359832764
H 4.063893795013428 2.140247106552124 0.01593039184808731
H 2.351386308670044 2.26625394821167 -2.868434190750122
H 4.069733142852783 -2.130099296569824 0.006991986650973558
H 2.3618931770324707 -2.2471301555633545 -2.880093812942505
H 0.0007747877389192581 -3.9101457595825195 1.4315998554229736
