16
Generated by QM7 dataset
C 1.751587152481079 -0.7211005687713623 0.03044348768889904
C 4.373355388641357 0.22062551975250244 0.5189377069473267
C 5.246371269226074 2.6083133220672607 0.39506614208221436
C 3.650024890899658 4.8756256103515625 -0.24829111993312836
N 7.778037071228027 2.987316846847534 0.9086559414863586
C 9.109292984008789 5.201962471008301 0.8933869004249573
O 11.370180130004883 5.306520938873291 1.3830716609954834
H 1.8215259313583374 -2.26171875 -1.3489432334899902
H 0.46912452578544617 0.71036696434021 -0.7148078083992004
H 0.9413670897483826 -1.4666731357574463 1.7811613082885742
H 5.680195331573486 -1.2888309955596924 1.0236079692840576
H 1.6577811241149902 4.427004814147949 -0.5404805541038513
H 4.333179950714111 5.767236232757568 -1.986782431602478
H 3.7194535732269287 6.264517784118652 1.2853161096572876
H 8.862947463989258 1.4721533060073853 1.3561809062957764
H 8.008678436279297 6.895610809326172 0.4058187007904053
