15
Generated by QM7 dataset
C 2.5745062828063965 -0.5759129524230957 2.012690544128418
C 4.2685699462890625 -0.26618683338165283 0.15709292888641357
C 5.849685192108154 2.06150221824646 -0.1940370798110962
C 8.614656448364258 1.4549757242202759 -0.010884822346270084
C 10.252501487731934 1.8211479187011719 -1.9091147184371948
C 12.952881813049316 1.192719578742981 -1.6021475791931152
O 14.467781066894531 1.5340608358383179 -3.316847324371338
H 1.4760462045669556 -2.3031225204467773 2.1517555713653564
H 2.235583782196045 0.8752644658088684 3.4227287769317627
H 4.517635822296143 -1.7747362852096558 -1.2197426557540894
H 5.392824649810791 3.4889068603515625 1.2374871969223022
H 5.391615390777588 2.8958163261413574 -2.0351593494415283
H 9.254499435424805 0.699708878993988 1.792008399963379
H 9.704839706420898 2.5775108337402344 -3.732038974761963
H 13.519346237182617 0.4101272523403168 0.24417151510715485
