15
Generated by QM7 dataset
C 1.8780287504196167 0.13177059590816498 -0.00890060979872942
N 4.601596355438232 -0.04030785709619522 -0.00935414433479309
N 5.975540637969971 2.1025471687316895 -0.014154048636555672
C 8.361527442932129 1.293045163154602 -0.01458868570625782
C 8.524913787841797 -1.3557651042938232 -0.010166727006435394
C 6.05324649810791 -2.1903626918792725 -0.007710082456469536
C 5.037027359008789 -4.8021721839904785 -0.003741657827049494
H 1.3079739809036255 2.117135763168335 0.00024566438514739275
H 1.1650539636611938 -0.8062705397605896 1.6874498128890991
H 1.1661689281463623 -0.7912472486495972 -1.7143406867980957
H 9.876936912536621 2.6654210090637207 -0.018198063597083092
H 10.213044166564941 -2.506173610687256 -0.01037459634244442
H 2.9714243412017822 -4.857522010803223 0.03322138637304306
H 5.725038528442383 -5.832431793212891 1.6528867483139038
H 5.665342330932617 -5.812363147735596 -1.6969929933547974
