19
Generated by QM7 dataset
C 1.819503903388977 -0.1265171617269516 0.14792776107788086
C 4.71428108215332 -0.01150843221694231 -0.016421720385551453
C 5.89110803604126 -1.3222980499267578 2.2963762283325195
C 5.577167510986328 -1.4389508962631226 -2.3977034091949463
C 5.532513618469238 2.784398078918457 -0.060849182307720184
N 6.614532947540283 3.84179425239563 -2.1386220455169678
N 5.18058967590332 4.279095649719238 1.8477364778518677
H 0.9471118450164795 0.8508303165435791 -1.4563363790512085
H 1.114976167678833 0.7782081365585327 1.8716036081314087
H 1.1447961330413818 -2.0836310386657715 0.14707738161087036
H 5.201622486114502 -0.5231707096099854 4.076592922210693
H 7.952647686004639 -1.12516188621521 2.2895166873931885
H 5.4432806968688965 -3.344153881072998 2.3202812671661377
H 4.691056251525879 -0.6763707995414734 -4.106072425842285
H 5.074008941650391 -3.4454054832458496 -2.2911040782928467
H 7.62990140914917 -1.3189154863357544 -2.6445393562316895
H 6.02907657623291 3.2319231033325195 -3.851677656173706
H 6.663816928863525 5.756143569946289 -1.997780680656433
H 4.344102382659912 3.34303879737854 3.319190502166748
