16
Generated by QM7 dataset
C 4.532375812530518 -0.9975108504295349 -2.659468173980713
C 4.742116451263428 0.04833919554948807 0.008617151528596878
C 5.591756343841553 2.7358510494232178 0.0067463223822414875
C 4.215903282165527 4.953652381896973 -0.011130486615002155
C 5.953317642211914 6.985958576202393 -0.003439301624894142
C 8.34138298034668 5.961934566497803 0.021221624687314034
N 8.108380317687988 3.3829877376556396 0.029404139146208763
H 3.8962185382843018 -2.9651691913604736 -2.609863042831421
H 6.357359886169434 -0.9372474551200867 -3.634359121322632
H 3.1759681701660156 0.08777777850627899 -3.7851970195770264
H 6.063318729400635 -1.111725926399231 1.1051307916641235
H 2.900861978530884 -0.09424064308404922 0.94796222448349
H 2.1749048233032227 5.091829299926758 -0.030084440484642982
H 5.506699562072754 8.98260498046875 -0.014645377174019814
H 10.186247825622559 6.843416213989258 0.03407176211476326
H 9.565264701843262 2.1463887691497803 0.04542901739478111
