14
Generated by QM7 dataset
C 1.358486294746399 -2.3122498989105225 0.969467282295227
O -1.1412434577941895 -2.954246759414673 0.07980313152074814
C -2.893813133239746 -1.0675441026687622 -0.10486090183258057
C -2.3834547996520996 1.404331088066101 0.02581365965306759
C 0.16240306198596954 2.3766708374023438 0.3591802418231964
N 1.9878218173980713 1.7972240447998047 -1.6343863010406494
C 2.1581239700317383 0.4039478600025177 0.748709499835968
H 2.7012689113616943 -3.5192747116088867 -0.04352039471268654
H 1.4318833351135254 -2.8632941246032715 2.9651882648468018
H -4.756837368011475 -1.8235101699829102 -0.473981112241745
H -3.909616708755493 2.7557499408721924 -0.20261643826961517
H 0.35723382234573364 4.180981159210205 1.3059897422790527
H 3.3322107791900635 3.174569845199585 -1.7348819971084595
H 3.778318405151367 0.8328778743743896 1.921473503112793
