15
Generated by QM7 dataset
C 3.374748468399048 -0.43561968207359314 0.4315378665924072
C 1.7006779909133911 -2.737873077392578 1.0280299186706543
C -0.30915918946266174 -1.730724573135376 -0.8350321650505066
C -2.846891403198242 -0.8049666285514832 0.2386535108089447
N -2.790142774581909 1.535837173461914 0.9367183446884155
N -0.3642825186252594 2.3818864822387695 0.5793522596359253
C 1.2030375003814697 0.7555692195892334 -1.057093858718872
H 5.000630855560303 -0.9166872501373291 -0.7608226537704468
H 4.068164825439453 0.6150869727134705 2.072084665298462
H 2.5229923725128174 -4.564406871795654 0.5181251168251038
H 1.0726463794708252 -2.8228352069854736 3.0003371238708496
H -0.4604695737361908 -2.800687551498413 -2.596653699874878
H -4.521528720855713 -2.0302271842956543 0.2950429320335388
H -0.2968003749847412 4.286579132080078 0.2797739505767822
H 1.5739339590072632 1.4603047370910645 -2.959537982940674
