17
Generated by QM7 dataset
O 1.671859622001648 0.07572132349014282 0.18152709305286407
C 4.399017810821533 0.06007439270615578 0.003741657827049494
C 5.73380708694458 1.9683387279510498 1.8265148401260376
C 7.6576995849609375 -0.10635378956794739 2.492227554321289
C 5.723432540893555 -2.0700626373291016 1.5688506364822388
C 5.305765151977539 0.22997966408729553 -2.6706554889678955
C 4.446903705596924 -1.3759663105010986 -4.42885684967041
H 1.298336386680603 -0.0522698238492012 1.9733086824417114
H 4.559380054473877 2.5534169673919678 3.431912660598755
H 6.543290138244629 3.670793056488037 0.9756467342376709
H 9.383926391601562 -0.0379268042743206 1.3508517742156982
H 8.180567741394043 -0.23489296436309814 4.486058712005615
H 6.530478000640869 -3.6523303985595703 0.5090166330337524
H 4.544545650482178 -2.8496313095092773 3.085714817047119
H 6.658298969268799 1.6863349676132202 -3.176894187927246
H 3.065268039703369 -2.823401927947998 -3.97318696975708
H 5.084535121917725 -1.2467467784881592 -6.372931480407715
