13
Generated by QM7 dataset
O 1.852630853652954 -0.10862145572900772 -0.26422151923179626
C 4.473586559295654 -0.025095563381910324 0.17941059172153473
C 5.7411580085754395 -2.2879858016967773 -1.0162001848220825
C 7.480254173278809 -1.5766363143920898 -2.717766284942627
N 7.609832763671875 0.9936180114746094 -2.8704373836517334
C 5.805276393890381 2.0753350257873535 -1.3678593635559082
N 5.143777847290039 4.413058757781982 -1.2210843563079834
H 1.3243011236190796 1.657875657081604 -0.19687166810035706
H 4.890554428100586 0.15824566781520844 2.1941421031951904
H 5.243593215942383 -4.2121806144714355 -0.560398280620575
H 8.644835472106934 -2.7652552127838135 -3.9017176628112793
H 8.446036338806152 1.859395980834961 -4.348203182220459
H 6.249985694885254 5.456773281097412 -2.416543960571289
