14
Generated by QM7 dataset
C 1.7182146310806274 0.7400923371315002 -0.5278005003929138
C 4.449001312255859 0.13613587617874146 -0.023716062307357788
C 5.380805969238281 -2.152360200881958 0.5954527258872986
C 3.9801790714263916 -4.483809947967529 0.8513972163200378
C 5.075464248657227 -6.667067050933838 1.5096076726913452
C 6.186887741088867 2.203477382659912 -0.20943835377693176
N 7.590935230255127 3.8805716037750244 -0.36065423488616943
H 1.1429442167282104 2.415334463119507 0.5460363626480103
H 0.42384666204452515 -0.7763561606407166 0.006481760647147894
H 1.4366453886032104 1.1371238231658936 -2.5396218299865723
H 7.411656856536865 -2.3187694549560547 0.9309546947479248
H 1.9604018926620483 -4.489592552185059 0.4859808683395386
H 7.083751678466797 -6.818774223327637 1.899703860282898
H 3.9604880809783936 -8.382674217224121 1.6751855611801147
