15
Generated by QM7 dataset
C 1.8363035917282104 0.0062171989120543 0.005329027771949768
C 4.713316917419434 -0.06270111352205276 -0.11168281733989716
N 5.603529453277588 0.33357444405555725 -2.7092058658599854
C 5.841067790985107 -2.3787684440612793 1.1720647811889648
O 6.324403285980225 -1.6203457117080688 3.732435941696167
N 6.673605442047119 1.0347951650619507 3.7503316402435303
C 5.782694339752197 1.8727941513061523 1.6421153545379639
H 1.1501439809799194 -0.2056400030851364 1.9492146968841553
H 1.0045784711837769 -1.5147477388381958 -1.1272783279418945
H 1.097212791442871 1.80946946144104 -0.6995010375976562
H 7.531390190124512 0.39432916045188904 -2.750288486480713
H 4.977312088012695 2.023632049560547 -3.388789176940918
H 7.654052257537842 -2.9457051753997803 0.34466713666915894
H 4.578787326812744 -4.016933917999268 1.158080816268921
H 5.731539249420166 3.894423246383667 1.1651862859725952
