15
Generated by QM7 dataset
C 1.5908092260360718 -0.005366822239011526 -0.02469872124493122
C 4.467879295349121 -0.0004346370114944875 -0.26025307178497314
C 5.715325355529785 0.004799904301762581 2.342655658721924
O 5.23879337310791 -2.2709593772888184 -1.595816969871521
C 6.4106125831604 -1.2437610626220703 -3.6732685565948486
C 6.406171798706055 1.242287039756775 -3.6762354373931885
O 5.23053503036499 2.269976854324341 -1.6009382009506226
H 0.7097622156143188 -0.00808802805840969 -1.8994771242141724
H 0.915440022945404 1.6817806959152222 0.9648374915122986
H 0.9214871525764465 -1.693629264831543 0.9669728875160217
H 7.7784528732299805 0.007086473051458597 2.158709764480591
H 5.200563907623291 -1.6816861629486084 3.425563335418701
H 5.1965012550354 1.6932891607284546 3.420517683029175
H 7.177992343902588 -2.553189992904663 -5.024177074432373
H 7.168675899505615 2.5513949394226074 -5.0299973487854
