15
Generated by QM7 dataset
C 2.003279685974121 0.0044030616991221905 0.5317500233650208
C 4.49004602432251 0.003420404391363263 0.08721086382865906
C 6.1097493171691895 -2.3076767921447754 -0.4099382758140564
C 8.703832626342773 -1.2603150606155396 -0.9464126229286194
C 8.740588188171387 1.2676849365234375 -0.7550022602081299
C 6.229236602783203 2.1340110301971436 -0.09261547774076462
C 5.679949760437012 4.572154521942139 0.3071938753128052
H 0.9516849517822266 1.7346552610397339 0.8411170840263367
H 0.9473196864128113 -1.7522485256195068 0.5849647521972656
H 5.413384914398193 -3.3715927600860596 -2.041131019592285
H 6.172771453857422 -3.5396649837493896 1.2524348497390747
H 10.314767837524414 -2.4220242500305176 -1.4181827306747437
H 10.361878395080566 2.4735569953918457 -1.0454154014587402
H 3.7963085174560547 5.189263343811035 0.8226733803749084
H 7.11379861831665 6.028566360473633 0.14052003622055054
