11
Generated by QM7 dataset
O 5.323245048522949 -2.016923666000366 0.07116708904504776
C 4.204300403594971 0.012245425023138523 -0.010601364076137543
N 5.509912490844727 2.315141201019287 0.006481760647147894
C 4.446544647216797 4.694438934326172 -0.07880157977342606
C 6.405907154083252 6.398348331451416 -0.02379165217280388
C 8.591073036193848 4.8972063064575195 0.09461858868598938
N 8.071077346801758 2.43166184425354 0.1137993112206459
H 2.128852128982544 0.13590911030769348 -0.1012326255440712
H 2.422534465789795 4.947567462921143 -0.16939504444599152
H 6.279408931732178 8.436700820922852 -0.06336251646280289
H 10.547355651855469 5.495172500610352 0.16805334389209747
