15
Generated by QM7 dataset
C 1.900308609008789 0.002702308353036642 -0.06173735111951828
C 4.7466139793396 -0.15915273129940033 0.13806338608264923
N 5.7214860916137695 -2.578965902328491 0.20427939295768738
C 6.087715148925781 1.9960421323776245 0.23717953264713287
C 8.859716415405273 2.104663610458374 0.5293312072753906
N 10.06513500213623 4.2333455085754395 0.4787999093532562
O 12.649542808532715 3.7644479274749756 0.8011872172355652
H 1.2144136428833008 1.9562822580337524 -0.06249324232339859
H 1.0155577659606934 -0.9715648889541626 1.536404013633728
H 1.2535687685012817 -0.8911381363868713 -1.8135513067245483
H 4.558756351470947 -3.914548873901367 -0.5484174489974976
H 7.522980690002441 -2.7551639080047607 -0.4370558559894562
H 5.172879695892334 3.829699993133545 0.14823012053966522
H 9.860893249511719 0.2969326674938202 0.8022832274436951
H 13.363255500793457 5.463613986968994 0.7680602669715881
