14
Generated by QM7 dataset
C 1.6615417003631592 -0.35814088582992554 0.04671403020620346
C 4.5168046951293945 -0.03473316505551338 -0.024188494309782982
C 5.260222911834717 2.685621976852417 -0.036377228796482086
C 5.690645694732666 4.316399097442627 1.9558665752410889
C 6.3668084144592285 6.753295421600342 1.0374596118927002
N 6.470290184020996 7.041686534881592 -1.456752061843872
S 5.7358856201171875 4.306270122528076 -2.8008198738098145
H 1.169816017150879 -2.366995334625244 0.08320464193820953
H 0.7663217186927795 0.49028944969177246 -1.6157724857330322
H 0.8470319509506226 0.5318823456764221 1.7290805578231812
H 5.281973361968994 -1.0083200931549072 -1.6852010488510132
H 5.34616756439209 -0.9613603949546814 1.633498191833496
H 5.531946659088135 3.806683301925659 3.9287028312683105
H 6.803675651550293 8.388248443603516 2.1859028339385986
