16
Generated by QM7 dataset
C 5.466467380523682 -2.2422544956207275 -0.873336911201477
N 4.436529159545898 0.09089582413434982 0.16066451370716095
C 6.259944438934326 2.1509997844696045 0.08838248997926712
C 5.309903621673584 4.384920597076416 1.5739151239395142
C 5.152678489685059 6.432344436645508 0.08152278512716293
C 5.917053699493408 5.756729602813721 -2.4412050247192383
C 6.542874336242676 3.301389455795288 -2.4953455924987793
H 4.046357154846191 -3.7391066551208496 -0.725144624710083
H 7.143769264221191 -2.86081862449646 0.1686013638973236
H 5.944870471954346 -2.052091360092163 -2.8760876655578613
H 3.930403709411621 -0.21626025438308716 1.989995002746582
H 8.099801063537598 1.5697766542434692 0.8458414077758789
H 4.846693992614746 4.342987537384033 3.558769941329956
H 4.529994964599609 8.29234504699707 0.6380849480628967
H 5.935497283935547 7.044426441192627 -4.022225379943848
H 7.169960975646973 2.2884771823883057 -4.149120330810547
