14
Generated by QM7 dataset
C 1.57194983959198 0.1847963184118271 0.298520028591156
C 4.377588272094727 -0.012302117422223091 0.023394810035824776
C 5.877501964569092 1.9896737337112427 -0.3812333643436432
C 8.674939155578613 1.873965859413147 -0.6659395098686218
C 10.00804615020752 -0.6347779035568237 -0.5117567181587219
O 9.839218139648438 3.854398727416992 -1.0233244895935059
H 0.6410896182060242 -0.9467338919639587 -1.1609532833099365
H 0.9018151164054871 2.134124517440796 0.12865255773067474
H 0.9942038059234619 -0.5370790362358093 2.1483161449432373
H 5.148200035095215 -1.9092280864715576 0.17343907058238983
H 5.105851173400879 3.8866941928863525 -0.529935896396637
H 9.334755897521973 -1.892333984375 -2.0057742595672607
H 9.714666366577148 -1.4835861921310425 1.3482439517974854
H 12.038368225097656 -0.34517738223075867 -0.7780758142471313
