15
Generated by QM7 dataset
C 3.213611602783203 -0.9635335803031921 0.5209218859672546
O 1.4879515171051025 -3.070200204849243 0.27215835452079773
C -0.2151264250278473 -1.5662050247192383 -1.248901128768921
C -2.7040469646453857 -1.0432422161102295 -0.11621815711259842
C -2.7220559120178223 1.2481452226638794 0.9462803602218628
C -0.2562468647956848 2.616722583770752 0.6903169751167297
C 1.399398922920227 0.8248843550682068 -0.8565561771392822
H 4.989274024963379 -1.3401559591293335 -0.4703906178474426
H 3.606806993484497 -0.5180306434631348 2.5022430419921875
H -0.3078363835811615 -2.2668964862823486 -3.1933724880218506
H -4.262636184692383 -2.360097885131836 -0.1391405314207077
H -4.337923049926758 2.0492756366729736 1.912043809890747
H 0.5614754557609558 3.0229382514953613 2.54449725151062
H -0.5434474349021912 4.40249490737915 -0.3147527873516083
H 2.167119026184082 1.650467872619629 -2.5911736488342285
