19
Generated by QM7 dataset
C 1.8625707626342773 -0.15134815871715546 0.20764310657978058
C 4.705191135406494 0.13194067776203156 0.021316111087799072
C 5.941128730773926 2.1536076068878174 1.715417742729187
C 7.937454700469971 0.10635378956794739 2.327953577041626
C 10.377317428588867 0.08042674511671066 0.7544920444488525
N 12.029694557189941 2.185203790664673 1.440972924232483
N 6.061258792877197 -1.817198395729065 1.4995921850204468
H 1.2233141660690308 -1.8386468887329102 -0.8064595460891724
H 0.9197108149528503 1.483812928199768 -0.6391998529434204
H 1.2228984832763672 -0.3025451600551605 2.1706905364990234
H 5.339080810546875 0.23632915318012238 -1.9518225193023682
H 4.809617519378662 2.722018241882324 3.356285810470581
H 6.607351779937744 3.850827217102051 0.7444387078285217
H 8.369332313537598 -0.034374117851257324 4.352209568023682
H 9.97355842590332 0.17512091994285583 -1.274695873260498
H 11.396843910217285 -1.6891883611679077 1.1003308296203613
H 11.196041107177734 3.851658821105957 0.9517038464546204
H 13.65351676940918 2.080040454864502 0.4096737205982208
H 6.769074440002441 -3.281358242034912 0.4698426127433777
