17
Generated by QM7 dataset
C 1.9479107856750488 0.00247554131783545 -0.09087692946195602
C 4.76501989364624 0.001719650812447071 -0.03828585147857666
C 6.3259148597717285 -1.398076057434082 -1.9787511825561523
C 5.157043933868408 -2.8770134449005127 -4.073455810546875
C 6.239403247833252 1.4594544172286987 -2.004394769668579
C 8.44588565826416 2.8202273845672607 -1.225695252418518
C 10.295058250427246 3.9698610305786133 -0.5777648687362671
H 1.2177773714065552 1.3400425910949707 1.308389663696289
H 1.2228606939315796 -1.876214623451233 0.38087430596351624
H 1.1896203756332397 0.5494378805160522 -1.9360054731369019
H 5.46367073059082 -0.02800574153661728 1.8896883726119995
H 8.035039901733398 -2.314347505569458 -1.3061031103134155
H 3.505082845687866 -1.9380842447280884 -4.8892316818237305
H 4.571530818939209 -4.739470958709717 -3.3882222175598145
H 6.535882472991943 -3.157241106033325 -5.590433597564697
H 5.173162937164307 2.3416919708251953 -3.5196526050567627
H 11.93016242980957 4.984625339508057 -0.0003590479609556496
