15
Generated by QM7 dataset
N 2.751176595687866 -0.6036162972450256 -1.721672773361206
C 3.9203691482543945 0.3144693374633789 0.6189231276512146
C 5.367181301116943 2.7689402103424072 0.07806458324193954
C 4.005709171295166 5.251964569091797 0.26437267661094666
C 1.5063574314117432 5.517565727233887 0.5316933393478394
N 7.739770412445068 2.507364273071289 -0.5287264585494995
O 8.928596496582031 4.824357509613037 -0.9975864291191101
H 2.0912086963653564 -2.38734769821167 -1.4280660152435303
H 4.141315937042236 -0.768589437007904 -3.0521156787872314
H 5.254137992858887 -1.102258324623108 1.3285908699035645
H 2.4909613132476807 0.603578507900238 2.08194899559021
H 5.183103084564209 6.9276227951049805 0.13898935914039612
H 0.21308551728725433 3.9290807247161865 0.6043722033500671
H 0.6746322512626648 7.391456127166748 0.6298835277557373
H 10.637760162353516 4.306402206420898 -1.450648307800293
