15
Generated by QM7 dataset
C 1.3094290494918823 -0.5573558211326599 0.4723937511444092
C 3.94588041305542 -1.6230857372283936 0.13626815378665924
O 5.61176872253418 0.39844876527786255 -0.5046324729919434
N 8.049949645996094 -0.5937330722808838 -0.8211237788200378
C 9.560218811035156 1.227396011352539 -1.419222116470337
C 12.305159568786621 0.7416608333587646 -1.8838679790496826
H -0.031766295433044434 -2.049464702606201 0.9684657454490662
H 0.6693788170814514 0.3652651607990265 -1.2659275531768799
H 1.2885286808013916 0.8814060688018799 1.9597405195236206
H 3.9527969360351562 -3.032292366027832 -1.3806339502334595
H 4.581470966339111 -2.512258529663086 1.8947339057922363
H 8.899495124816895 3.1974544525146484 -1.6152622699737549
H 12.75899600982666 -1.2554017305374146 -1.6212149858474731
H 13.418265342712402 1.8860411643981934 -0.573475182056427
H 12.766196250915527 1.3110542297363281 -3.815035820007324
