15
Generated by QM7 dataset
C 1.6542474031448364 -0.05404616892337799 -0.4612254500389099
C 4.136704921722412 0.0005669178208336234 0.029876569285988808
C 5.561690807342529 2.392620086669922 0.6448879241943359
C 8.232780456542969 2.2474889755249023 -0.44147780537605286
O 9.592193603515625 0.05795789882540703 0.41298073530197144
C 8.191886901855469 -2.125563859939575 0.29562875628471375
C 5.675887107849121 -2.260528087615967 0.049548618495464325
H 0.5287075638771057 1.6621652841567993 -0.4436699151992798
H 0.6696244478225708 -1.8044805526733398 -0.8828989267349243
H 4.590919494628906 4.064120769500732 -0.09922952204942703
H 5.667383193969727 2.579570770263672 2.7078075408935547
H 9.315008163452148 3.91029691696167 0.1459624469280243
H 8.201166152954102 2.236018419265747 -2.514923095703125
H 9.399478912353516 -3.7688887119293213 0.45905226469039917
H 4.75955867767334 -4.0925421714782715 -0.07866930216550827
