15
Generated by QM7 dataset
C 2.1119580268859863 0.35475829243659973 -0.15289774537086487
C 4.8472418785095215 -0.15563784539699554 -0.030122235417366028
C 6.263327121734619 -2.1516611576080322 -0.6755393147468567
C 8.821978569030762 -1.2835019826889038 0.09822796285152435
C 9.083629608154297 1.5356481075286865 -0.852096438407898
C 6.775650978088379 1.595968246459961 1.0401430130004883
O 8.514349937438965 -0.02267671376466751 2.6728286743164062
H 1.0635567903518677 -1.326568841934204 -0.7421899437904358
H 1.7208224534988403 1.867767572402954 -1.50594162940979
H 1.399209976196289 0.9347530603408813 1.6996574401855469
H 5.716988563537598 -3.93448543548584 -1.4892175197601318
H 10.429587364196777 -2.5639994144439697 -0.01914292573928833
H 8.682554244995117 1.9039936065673828 -2.8439621925354004
H 10.78345775604248 2.54901385307312 -0.2531288266181946
H 6.21134090423584 3.3680965900421143 1.9224939346313477
