11
Generated by QM7 dataset
C -0.683495044708252 2.2047433853149414 0.26287978887557983
O -2.2687861919403076 -0.0021920823492109776 0.3105008900165558
C -0.6875957250595093 -2.21099853515625 0.23846453428268433
C 1.928635597229004 -1.261978030204773 -0.050153329968452454
C 1.9311678409576416 1.2525482177734375 -0.036131564527750015
H -0.9250587224960327 3.239689826965332 2.035801887512207
H -1.256138801574707 3.4023008346557617 -1.321031928062439
H -1.262526035308838 -3.389620780944824 -1.3583918809890747
H -0.931389331817627 -3.265333414077759 1.9993113279342651
H 3.573831081390381 -2.4542062282562256 -0.23118910193443298
H 3.5788955688476562 2.4454567432403564 -0.2040715217590332
