18
Generated by QM7 dataset
C 1.6350666284561157 -0.23665040731430054 0.354380339384079
C 4.476251125335693 -0.0015495754778385162 -0.0818629339337349
C 5.251473426818848 -0.04998325556516647 -2.8636531829833984
N 4.220419883728027 2.1021125316619873 -4.256400108337402
C 5.784943103790283 2.0442490577697754 1.5220609903335571
O 7.072451114654541 0.16909269988536835 3.0389630794525146
C 6.019590377807617 -1.8585078716278076 1.5457770824432373
H 1.1822315454483032 -0.3450639843940735 2.372570037841797
H 0.8884358406066895 -1.9437533617019653 -0.5474347472190857
H 0.6166554093360901 1.3938052654266357 -0.4116012454032898
H 4.617583751678467 -1.8068238496780396 -3.7592132091522217
H 7.315583229064941 0.0030991509556770325 -3.0396623611450195
H 2.3122878074645996 1.9065824747085571 -4.443275451660156
H 4.918598175048828 2.0855963230133057 -6.053964614868164
H 4.541956901550293 3.2198097705841064 2.6841859817504883
H 7.139385223388672 3.2596452236175537 0.5386286377906799
H 7.507636070251465 -2.917661666870117 0.5738531351089478
H 4.932374000549316 -3.1660661697387695 2.7243425846099854
