19
Generated by QM7 dataset
C 2.6176865100860596 -0.9466394186019897 3.345249891281128
C 3.4506776332855225 -1.6572898626327515 0.6809628009796143
C 4.332612991333008 -4.400491714477539 0.6114397644996643
O 1.3170446157455444 -1.2954072952270508 -0.9404411315917969
C 1.9719291925430298 -1.1513723134994507 -3.5649495124816895
C -0.4588254988193512 -0.7624667286872864 -5.066847324371338
O -1.6492773294448853 1.5303946733474731 -4.299127101898193
H 2.029716968536377 1.0391793251037598 3.4083478450775146
H 4.143810272216797 -1.2189111709594727 4.714545249938965
H 0.9804466366767883 -2.069495677947998 3.940286874771118
H 4.99286413192749 -0.3949149549007416 0.1155000627040863
H 2.7381374835968018 -5.699319362640381 0.8646063804626465
H 5.74287748336792 -4.779173851013184 2.0784153938293457
H 5.191153049468994 -4.857503414154053 -1.2140923738479614
H 2.8958351612091064 -2.8943989276885986 -4.180849075317383
H 3.2424299716949463 0.4589955806732178 -3.8456871509552
H -1.7918572425842285 -2.3043699264526367 -4.721669673919678
H -0.06525224447250366 -0.6505382061004639 -7.092369079589844
H -1.6730879545211792 1.4622701406478882 -2.45430064201355
