14
Generated by QM7 dataset
N 0.8393218517303467 1.2602016925811768 0.21017533540725708
C 3.3109891414642334 0.4965633451938629 0.3482576310634613
C 5.354822635650635 1.9098516702651978 -0.10605143010616302
C 7.930897235870361 0.8105602264404297 0.14029327034950256
O 8.28438949584961 -1.4422956705093384 0.5991754531860352
C 10.143633842468262 2.619292736053467 -0.2234979122877121
O 12.507984161376953 1.3857172727584839 0.09031001478433609
H -0.3995448052883148 -0.15875589847564697 -0.18763090670108795
H 0.5228683352470398 2.8447558879852295 -0.8297220468521118
H 3.5025696754455566 -1.476631999015808 0.917329728603363
H 5.211467742919922 3.880855083465576 -0.6316409707069397
H 10.020689010620117 4.141618251800537 1.167548418045044
H 10.075471878051758 3.401318073272705 -2.1350882053375244
H 12.122063636779785 -0.40007391571998596 0.3928929567337036
