14
Generated by QM7 dataset
C 1.8745516538619995 -0.01721540465950966 0.16812893748283386
C 4.762109756469727 0.0 0.0
C 5.628662586212158 -1.4168788194656372 -2.3799400329589844
C 8.359996795654297 -1.9586066007614136 -2.341162919998169
C 10.586888313293457 -2.3940751552581787 -2.3145554065704346
C 5.672995567321777 2.5722384452819824 0.0
N 6.399047374725342 4.622572422027588 0.0
H 1.2240512371063232 0.9700342416763306 1.8689391613006592
H 1.1525440216064453 -1.9553563594818115 0.24967060983181
H 1.0131199359893799 0.919106125831604 -1.4668810367584229
H 5.4932451248168945 -0.9785001873970032 1.677207589149475
H 5.16014289855957 -0.3372783064842224 -4.087742328643799
H 4.617923736572266 -3.2221343517303467 -2.5208001136779785
H 12.566679000854492 -2.7671260833740234 -2.2962629795074463
