18
Generated by QM7 dataset
C 1.7567272186279297 -0.2074730396270752 0.32525965571403503
C 4.605300426483154 0.034525297582149506 -0.0581846684217453
C 5.388175964355469 -0.04353928938508034 -2.8545446395874023
O 4.4884209632873535 2.141381025314331 -4.14358377456665
C 5.880147457122803 2.111863374710083 1.5711183547973633
C 7.816795349121094 0.0733402743935585 2.2775356769561768
N 5.968473434448242 -1.8723784685134888 1.5135005712509155
H 1.2569513320922852 -0.315584272146225 2.3330559730529785
H 1.0217182636260986 -1.9085289239883423 -0.5961896777153015
H 0.7629391551017761 1.4258739948272705 -0.46424901485443115
H 4.640392780303955 -1.7246774435043335 -3.802053451538086
H 7.445237636566162 -0.07060016691684723 -3.06821608543396
H 2.664362668991089 1.9826817512512207 -4.301753520965576
H 4.752094268798828 2.774628162384033 3.179086208343506
H 6.635130882263184 3.7523345947265625 0.5677682161331177
H 9.5328369140625 0.09503432363271713 1.119152545928955
H 8.35852336883545 0.011999760754406452 4.270289897918701
H 6.725327491760254 -3.362295150756836 0.5578471422195435
