16
Generated by QM7 dataset
C 2.4576454162597656 -0.8456335663795471 -0.12020547688007355
C 5.300076961517334 -0.5088465809822083 0.14150269329547882
C 6.050166130065918 2.279538869857788 -0.014021768234670162
C 8.912156105041504 2.7017035484313965 0.13978303968906403
O 9.403107643127441 5.310848712921143 -0.41872552037239075
C 9.939033508300781 2.018057346343994 2.642838716506958
N 10.71106243133545 1.5079636573791504 4.635573863983154
H 1.9597593545913696 -2.8493857383728027 0.002777897519990802
H 1.7901942729949951 -0.12927617132663727 -1.9424306154251099
H 1.4511395692825317 0.1593984067440033 1.381937861442566
H 6.250155925750732 -1.575918197631836 -1.3583351373672485
H 5.902710914611816 -1.3188399076461792 1.949082374572754
H 5.097933292388916 3.3499553203582764 1.4877246618270874
H 5.352517127990723 3.080291509628296 -1.7968461513519287
H 9.860931396484375 1.5934737920761108 -1.328987717628479
H 8.81234073638916 6.304901123046875 1.0141215324401855
