9
Generated by QM7 dataset
C 1.9210010766983032 -0.04159287363290787 -0.011206075549125671
C 4.755439281463623 0.06598923355340958 -0.0033070207573473454
N 5.914748191833496 -2.232994794845581 0.005518000107258558
O 5.969852924346924 2.0341389179229736 -0.007483315654098988
H 1.154471516609192 1.8778208494186401 0.014683172106742859
H 1.2514522075653076 -1.0493649244308472 1.6638849973678589
H 1.2609575986862183 -1.0021218061447144 -1.7174209356307983
H 4.961003303527832 -3.885409116744995 0.0023054659832268953
H 7.826262950897217 -2.2648744583129883 0.008031335659325123
