16
Generated by QM7 dataset
C 1.453709602355957 -0.6074146628379822 -0.10149718821048737
C 4.221118927001953 -0.8954089283943176 -0.536115288734436
C 5.313437461853027 -0.5669178366661072 -3.1494553089141846
N 5.6953511238098145 1.346618890762329 -1.188165307044983
C 8.237675666809082 1.3154194355010986 -0.075872503221035
C 9.651738166809082 3.586681365966797 -1.06882905960083
O 11.870201110839844 3.516345739364624 -1.7588436603546143
H 1.0998584032058716 0.0387771800160408 1.831220269203186
H 0.502875030040741 -2.426786184310913 -0.3542291522026062
H 0.5911252498626709 0.7526401281356812 -1.401666522026062
H 5.059571743011475 -2.2944676876068115 0.7032426595687866
H 4.06011438369751 -0.032767850905656815 -4.679604530334473
H 6.887050151824951 -1.7517950534820557 -3.7084929943084717
H 9.330541610717773 -0.3919103145599365 -0.4976215958595276
H 8.105280876159668 1.5255948305130005 1.9785810708999634
H 8.630624771118164 5.405013561248779 -0.9776687026023865
