15
Generated by QM7 dataset
C 1.888951301574707 -0.19040881097316742 0.012453295290470123
C 4.693815231323242 0.08360148221254349 -0.17360913753509521
C 5.8967390060424805 2.322360038757324 -0.1315249353647232
C 8.717835426330566 2.519420623779297 -0.327319473028183
C 9.952393531799316 -0.015061117708683014 -0.58037269115448
C 8.577958106994629 -2.1382439136505127 -0.6044666767120361
O 5.984025478363037 -2.194406747817993 -0.4049305021762848
H 0.9327121376991272 1.64311683177948 0.08983758091926575
H 1.3866432905197144 -1.2462743520736694 1.7190839052200317
H 1.1601028442382812 -1.2170592546463013 -1.6294353008270264
H 4.842007637023926 4.071263790130615 0.04983207955956459
H 9.452259063720703 3.468630075454712 1.3594311475753784
H 9.205951690673828 3.680997610092163 -1.9695292711257935
H 11.993316650390625 -0.09921061992645264 -0.745213508605957
H 9.346282958984375 -4.02218770980835 -0.7814395427703857
