21
Generated by QM7 dataset
C 4.537516117095947 -3.130671501159668 0.21129028499126434
C 7.031236171722412 -1.8793892860412598 -0.5548991560935974
C 7.5142693519592285 -2.3369486331939697 -3.368285655975342
N 6.866281986236572 0.821369469165802 0.07466308027505875
C 9.277894020080566 2.1638875007629395 -0.266621470451355
C 9.071630477905273 4.947113990783691 0.5746468305587769
N 8.003897666931152 5.218780994415283 3.1232638359069824
H 4.175047397613525 -2.8968746662139893 2.2372846603393555
H 4.588066101074219 -5.163563251495361 -0.1795239895582199
H 2.9340832233428955 -2.325648069381714 -0.8235048651695251
H 8.548837661743164 -2.763138771057129 0.5465087890625
H 6.12129545211792 -1.3554627895355225 -4.5456037521362305
H 7.401943683624268 -4.357217311859131 -3.809650182723999
H 9.399422645568848 -1.699733018875122 -3.932671308517456
H 6.4174723625183105 0.9818450212478638 1.9476462602615356
H 9.859230041503906 2.1460864543914795 -2.252232313156128
H 10.7591552734375 1.2359564304351807 0.8483169674873352
H 7.877039909362793 5.9897894859313965 -0.7560038566589355
H 10.951019287109375 5.810057640075684 0.5305784344673157
H 6.142214775085449 4.717323303222656 3.0317442417144775
H 8.000628471374512 7.089987754821777 3.5877585411071777
