16
Generated by QM7 dataset
N 4.849188327789307 -2.37345814704895 -0.3989022970199585
C 3.7719311714172363 0.0750410258769989 0.29895466566085815
C 5.8614959716796875 2.0549449920654297 0.4386999309062958
N 8.164127349853516 1.3513431549072266 1.863761305809021
C 6.244845867156982 3.754696846008301 -1.8236613273620605
C 5.075388431549072 4.792931079864502 0.5424647927284241
H 3.4246561527252197 -3.662459373474121 -0.5162354111671448
H 5.989279270172119 -2.967625856399536 1.028124451637268
H 2.841826915740967 -0.07917952537536621 2.1427605152130127
H 2.331732988357544 0.6079248785972595 -1.0891814231872559
H 7.696079730987549 0.6432628035545349 3.589081287384033
H 9.048141479492188 -0.07214974611997604 0.9083535671234131
H 5.046929359436035 3.48612904548645 -3.462280750274658
H 8.152581214904785 4.339888572692871 -2.2849056720733643
H 6.197564601898193 6.084445953369141 1.6700265407562256
H 3.0791008472442627 5.251076698303223 0.49966248869895935
