15
Generated by QM7 dataset
O 1.8707910776138306 0.04703528434038162 0.01778232306241989
C 4.540218353271484 -0.00013228082389105111 -0.00944863073527813
C 5.6666083335876465 2.0344979763031006 1.6742029190063477
O 8.146836280822754 1.144323706626892 2.310908317565918
C 7.930122375488281 -1.547326683998108 2.617894411087036
C 5.615717887878418 -2.3254404067993164 1.1795293092727661
C 4.673708438873291 -4.67779016494751 1.1316057443618774
H 1.3054605722427368 -1.3175737857818604 -1.0708510875701904
H 5.237961769104004 0.19876138865947723 -1.9492902755737305
H 4.572400093078613 2.325742721557617 3.4109745025634766
H 5.811398983001709 3.8546254634857178 0.7032615542411804
H 9.646655082702637 -2.4243485927581787 1.873625636100769
H 7.7444376945495605 -1.9578696489334106 4.63689661026001
H 2.957402467727661 -5.140810966491699 0.11232531815767288
H 5.606590747833252 -6.211076259613037 2.1276614665985107
