20
Generated by QM7 dataset
C 2.0026750564575195 0.15671499073505402 -0.17253199219703674
C 4.81946325302124 0.10051453113555908 -0.11368592083454132
C 6.383022308349609 -1.2751305103302002 -2.0613698959350586
N 5.209351539611816 -2.6115448474884033 -4.1697187423706055
C 6.473785877227783 1.5913194417953491 -1.9369125366210938
C 5.318577289581299 3.1622488498687744 -4.018143653869629
C 8.844882011413574 2.7679007053375244 -0.8605057001113892
H 1.306443214416504 1.6396586894989014 1.089956283569336
H 1.2524160146713257 -1.6494286060333252 0.5005128383636475
H 1.2109931707382202 0.5051804780960083 -2.045968770980835
H 5.461006164550781 -0.060263365507125854 1.8315225839614868
H 8.045565605163574 -2.258392810821533 -1.341289758682251
H 3.593163013458252 -1.7542139291763306 -4.762790203094482
H 4.688713073730469 -4.387452602386475 -3.632998466491699
H 3.6440722942352295 2.3137240409851074 -4.877345561981201
H 6.6997971534729 3.459616184234619 -5.531398296356201
H 4.766475200653076 5.016429424285889 -3.2825865745544434
H 9.652702331542969 1.6316273212432861 0.6690386533737183
H 8.432846069335938 4.648083686828613 -0.10140270739793777
H 10.28423023223877 2.9590466022491455 -2.334851026535034
