15
Generated by QM7 dataset
C 1.9986310005187988 -0.00788015779107809 0.040194474160671234
C 4.52812385559082 -0.021108241751790047 0.07609926909208298
C 6.154479026794434 2.300004482269287 0.11434733122587204
C 8.366232872009277 1.5958548784255981 -1.571439504623413
C 8.52364730834961 -1.2245992422103882 -1.228492021560669
O 10.384252548217773 -2.473708152770996 -1.8198062181472778
C 6.132671356201172 -2.3560726642608643 -0.15994642674922943
H 0.9197108149528503 -1.750415563583374 -0.07681737095117569
H 0.9357168078422546 1.7463525533676147 0.13035330176353455
H 6.810327529907227 2.6478843688964844 2.0492000579833984
H 5.188809871673584 3.995863676071167 -0.5663131475448608
H 7.965630054473877 2.002845048904419 -3.561018705368042
H 10.113492965698242 2.5242016315460205 -0.9812024831771851
H 5.342539310455322 -3.729450225830078 -1.4818854331970215
H 6.531592845916748 -3.186777353286743 1.6882624626159668
