18
Generated by QM7 dataset
C 1.9705874919891357 0.0784803256392479 0.003628274193033576
C 4.836924076080322 -0.027041980996727943 0.06200191378593445
O 5.808111190795898 1.9743670225143433 1.6074955463409424
C 8.308691024780273 1.227584958076477 2.312533378601074
C 8.285806655883789 -1.6296430826187134 2.558519124984741
C 5.888877868652344 -2.473708152770996 1.2104451656341553
N 6.365504741668701 -4.496678829193115 -0.6098902225494385
H 1.1812866926193237 -1.446906566619873 -1.1482354402542114
H 1.3340144157409668 1.890293002128601 -0.7670587301254272
H 1.1859921216964722 -0.055444564670324326 1.913933515548706
H 5.570799350738525 0.26509079337120056 -1.85659921169281
H 9.608199119567871 1.8269305229187012 0.8153223395347595
H 8.853631973266602 2.1748669147491455 4.06790018081665
H 10.029607772827148 -2.450218915939331 1.80400812625885
H 8.192907333374023 -2.1748290061950684 4.553200721740723
H 4.572702407836914 -3.20524001121521 2.6362247467041016
H 7.615974426269531 -3.897465705871582 -1.9467958211898804
H 4.740869522094727 -4.918522357940674 -1.553052544593811
