13
Generated by QM7 dataset
C 1.9590601921081543 0.2532232999801636 0.17311781644821167
C 4.758443832397461 -0.13568232953548431 -0.32917138934135437
C 6.175624847412109 2.3038597106933594 -0.17857912182807922
C 7.303564548492432 3.2127044200897217 2.2679169178009033
O 8.814760208129883 2.0254085063934326 0.3540402054786682
H 0.9442394375801086 -1.5437928438186646 0.036207154393196106
H 1.136008858680725 1.5678868293762207 -1.196121096611023
H 1.6473876237869263 1.0321305990219116 2.0639967918395996
H 5.012063980102539 -0.9472630023956299 -2.2183494567871094
H 5.510970592498779 -1.5115352869033813 1.0275007486343384
H 5.6302876472473145 3.666616678237915 -1.6014484167099
H 6.946198463439941 2.154590129852295 3.9820687770843506
H 7.5403852462768555 5.22739839553833 2.539073944091797
