15
Generated by QM7 dataset
C 2.3765952587127686 -0.5641021728515625 -1.0938302278518677
O 4.7181925773620605 -0.15061117708683014 0.1491938829421997
C 5.785396575927734 2.2077102661132812 0.0
C 4.596683025360107 4.459867000579834 -0.06978758424520493
C 1.851855993270874 5.043887138366699 0.1990070641040802
C 8.442351341247559 2.2077102661132812 0.0
C 10.691428184509277 2.2077102661132812 0.0
H 2.247734785079956 -2.5802886486053467 -1.5387661457061768
H 2.2327871322631836 0.48097309470176697 -2.8727049827575684
H 0.7998833060264587 -0.11914723366498947 0.1651998609304428
H 5.771960735321045 6.1469011306762695 -0.22036096453666687
H 0.8917428851127625 3.73816180229187 1.477350115776062
H 0.9190872311592102 5.048781394958496 -1.6452900171279907
H 1.6299643516540527 6.930494785308838 1.023211121559143
H 12.703343391418457 2.1949357986450195 0.003760555060580373
