13
Generated by QM7 dataset
N 2.0599148273468018 -0.4932374060153961 0.09314460307359695
C 4.644341945648193 -0.5514220595359802 0.20261643826961517
N 5.90031099319458 -2.6403820514678955 0.038739386945962906
C 6.059369087219238 1.950405240058899 0.5933740139007568
O 4.877326488494873 3.7321712970733643 1.4810539484024048
C 8.752814292907715 2.060670852661133 -0.18152709305286407
C 10.088812828063965 4.193944931030273 0.07630714029073715
H 1.3324270248413086 1.1625784635543823 0.7665296196937561
H 1.1623705625534058 -2.021780252456665 0.809823215007782
H 4.655056953430176 -4.090973854064941 -0.2562468647956848
H 9.581270217895508 0.3567236065864563 -0.957902193069458
H 9.254612922668457 5.899252414703369 0.8585781455039978
H 12.056225776672363 4.271631240844727 -0.4926705062389374
