15
Generated by QM7 dataset
C 1.8586212396621704 -0.06353259086608887 0.014475301839411259
N 4.612292289733887 -0.04251883924007416 0.0523076206445694
C 5.582515716552734 2.5559489727020264 -0.02815691940486431
C 8.480996131896973 2.5795328617095947 0.01058246660977602
C 9.468832015991211 5.178851127624512 -0.09248320013284683
C 10.283795356750488 7.2947773933410645 -0.17309890687465668
H 1.184404730796814 -2.0171315670013428 0.09159502387046814
H 1.11782968044281 0.7973888516426086 -1.7149453163146973
H 1.079014778137207 0.9289515614509583 1.653737187385559
H 5.271050930023193 -1.0221151113510132 -1.47145414352417
H 4.869862079620361 3.620431900024414 1.6026955842971802
H 4.905672550201416 3.5115835666656494 -1.7404377460479736
H 9.216175079345703 1.5055259466171265 -1.6024878025054932
H 9.170860290527344 1.6464617252349854 1.7275309562683105
H 11.011981964111328 9.171842575073242 -0.2395416796207428
