12
Generated by QM7 dataset
O 2.265592575073242 -0.40765172243118286 0.8255457878112793
C 4.481390953063965 -0.08269441872835159 0.4124894142150879
C 6.286608695983887 2.1494688987731934 -0.015023322775959969
C 8.050251960754395 0.13352805376052856 -1.1698538064956665
N 6.354789733886719 -1.7763614654541016 -0.0784614309668541
C 8.097400665283203 -0.050455689430236816 -3.895216941833496
C 8.116449356079102 -0.19498194754123688 -6.160091400146484
H 6.954060077667236 3.018327236175537 1.7378110885620117
H 5.566339492797852 3.596564531326294 -1.2996591329574585
H 9.92514419555664 0.07101590931415558 -0.2942303717136383
H 5.832885265350342 -3.4562902450561523 -0.8226355910301208
H 8.119643211364746 -0.318853497505188 -8.170929908752441
