13
Generated by QM7 dataset
C 1.8145527839660645 0.0919729694724083 0.03550795465707779
C 4.5963053703308105 0.10947183519601822 -0.13647602498531342
C 6.224757671356201 2.0269579887390137 -0.24154479801654816
N 8.675033569335938 1.2480884790420532 -0.3988834023475647
O 8.69483757019043 -1.3918777704238892 -0.14314675331115723
C 6.212946891784668 -2.163755416870117 -0.08409281075000763
N 5.59665060043335 -4.502196788787842 0.04501327499747276
H 1.0508955717086792 2.0139944553375244 0.08292118459939957
H 1.1956486701965332 -0.8795730471611023 1.7528910636901855
H 0.9942604899406433 -0.8782691359519958 -1.5961004495620728
H 5.804860591888428 4.026382923126221 -0.20367468893527985
H 9.888105392456055 2.1358063220977783 0.8049288392066956
H 3.67449688911438 -4.683308124542236 0.07883937656879425
