13
Generated by QM7 dataset
C 1.8829798698425293 -0.14533883333206177 0.10189403593540192
C 4.14891242980957 -0.024415262043476105 0.05714531987905502
C 6.8689656257629395 0.1239471361041069 -0.009335246868431568
C 8.120738983154297 2.101961374282837 1.7318583726882935
C 10.007649421691895 -0.026267193257808685 2.3319599628448486
N 8.00302791595459 -1.8468672037124634 1.6334792375564575
H -0.12619590759277344 -0.26193493604660034 0.15448510646820068
H 7.651841163635254 0.12383375316858292 -1.9310733079910278
H 6.987905025482178 2.702988624572754 3.361085891723633
H 8.909491539001465 3.7689263820648193 0.8011872172355652
H 11.657266616821289 -0.07919842004776001 1.079581618309021
H 10.640896797180176 -0.13868699967861176 4.294742584228516
H 8.603507041931152 -3.411182403564453 0.6920177340507507
