16
Generated by QM7 dataset
C 3.6103405952453613 2.3076391220092773 -2.6119983196258545
O 5.952259540557861 1.8021751642227173 -1.3694655895233154
C 7.615180492401123 3.7719879150390625 -1.418503999710083
O 7.230715751647949 5.808319091796875 -2.438124656677246
C 9.980210304260254 3.0456149578094482 -0.0014172946102917194
C 11.80844497680664 5.264228820800781 0.15951178967952728
N 14.070768356323242 4.56588077545166 1.5868786573410034
H 2.419945478439331 0.627219021320343 -2.4398064613342285
H 3.9215786457061768 2.688664436340332 -4.620852947235107
H 2.637887716293335 3.8923633098602295 -1.7051187753677368
H 10.868061065673828 1.4548813104629517 -0.9862858653068542
H 9.43205738067627 2.44368052482605 1.903464436531067
H 10.902264595031738 6.889204502105713 1.0701141357421875
H 12.374002456665039 5.862610816955566 -1.740929126739502
H 13.594047546386719 4.162594318389893 3.410407543182373
H 15.25462532043457 6.0848612785339355 1.6740328073501587
