17
Generated by QM7 dataset
C 3.2371575832366943 2.8304128646850586 3.575040578842163
O 5.749246120452881 3.1508727073669434 2.6760599613189697
C 5.914578437805176 2.716235637664795 0.01712091825902462
C 8.647821426391602 3.043649673461914 -0.8402100205421448
C 9.524371147155762 5.721164703369141 -0.5564865469932556
C 11.32673454284668 6.472406387329102 1.5122722387313843
O 12.17142391204834 6.069101333618164 -1.0329620838165283
H 3.210096597671509 3.255110025405884 5.596272945404053
H 2.6183667182922363 0.8770219087600708 3.3004066944122314
H 1.9483832120895386 4.12844705581665 2.610278606414795
H 4.675201416015625 4.0429368019104 -0.9807489514350891
H 5.295428276062012 0.7828001379966736 -0.3936866521835327
H 8.797487258911133 2.5068917274475098 -2.8341734409332275
H 9.872231483459473 1.7728843688964844 0.24568329751491547
H 8.241247177124023 7.113288402557373 -1.3255106210708618
H 11.850850105285645 5.081322193145752 2.9196078777313232
H 11.268928527832031 8.398548126220703 2.197335720062256
