19
Generated by QM7 dataset
N 4.0539350509643555 -0.5954527258872986 -2.7422003746032715
C 4.41887903213501 0.19006864726543427 -0.11510322242975235
C 5.818240165710449 2.730692148208618 0.09887047111988068
C 4.344272613525391 4.957734107971191 -0.9763458967208862
C 5.4122514724731445 7.246646404266357 0.4037399888038635
C 6.910388469696045 6.176248550415039 2.613661289215088
N 6.217803478240967 3.505404233932495 2.7369847297668457
H 3.1379847526550293 -2.287891387939453 -2.7663888931274414
H 5.767141819000244 -0.8977332711219788 -3.5661022663116455
H 5.489919185638428 -1.2807807922363281 0.8744140863418579
H 2.5657756328582764 0.3162078857421875 0.8026611804962158
H 7.662007808685303 2.5873563289642334 -0.8469563722610474
H 2.3191285133361816 4.7896809577941895 -0.5685052275657654
H 4.566882133483887 5.130814552307129 -3.025130271911621
H 6.642632961273193 8.354705810546875 -0.8406257629394531
H 3.879267692565918 8.481525421142578 1.046681523323059
H 8.941579818725586 6.372647762298584 2.259829044342041
H 6.470498085021973 7.145432472229004 4.385166168212891
H 7.626254558563232 2.4745774269104004 3.5482254028320312
