18
Generated by QM7 dataset
C 1.6786248683929443 -0.17676497995853424 0.23421265184879303
C 4.542202472686768 -0.044578637927770615 -0.07899054884910583
C 5.37644100189209 -0.09512881189584732 -2.843357563018799
O 4.464723587036133 2.0817410945892334 -4.138443470001221
C 5.861873626708984 1.9850060939788818 1.5680758953094482
N 7.717320442199707 0.07385049760341644 2.394982099533081
C 5.989883899688721 -1.9622160196304321 1.5924155712127686
H 1.1340057849884033 -0.257928729057312 2.2301602363586426
H 0.9134558439254761 -1.8608133792877197 -0.6920744180679321
H 0.7587817311286926 1.4848711490631104 -0.5847757458686829
H 4.675087928771973 -1.7840337753295898 -3.813486337661743
H 7.438529014587402 -0.0919162780046463 -3.017873764038086
H 2.6683688163757324 1.8416703939437866 -4.440402984619141
H 4.717644691467285 2.723794460296631 3.1301989555358887
H 6.680673122406006 3.5944292545318604 0.5591699481010437
H 9.36026668548584 0.1358713060617447 1.3866621255874634
H 6.91093635559082 -3.5289690494537354 0.6029927134513855
H 4.903159141540527 -2.7568836212158203 3.168466091156006
