14
Generated by QM7 dataset
C 1.9087368249893188 0.027004186064004898 0.16300778090953827
C 4.705588340759277 -0.008484870195388794 -0.03974094241857529
C 6.216423988342285 -2.0226871967315674 -0.23655591905117035
N 8.661200523376465 -1.2618268728256226 -0.38161128759384155
C 8.883697509765625 1.3421969413757324 -0.28627461194992065
O 10.852924346923828 2.537184000015259 -0.3796837627887726
C 6.225438117980957 2.409363031387329 -0.04605262726545334
H 1.1203808784484863 -1.8849639892578125 0.12090467661619186
H 1.0861767530441284 1.0905042886734009 -1.4082428216934204
H 1.3262665271759033 0.9188793301582336 1.935684323310852
H 5.708806037902832 -4.000890254974365 -0.28538644313812256
H 10.180729866027832 -2.4059994220733643 -0.5422191023826599
H 5.78140926361084 3.5906875133514404 -1.679229497909546
H 6.030758380889893 3.44213604927063 1.7315750122070312
