19
Generated by QM7 dataset
C 1.8716603517532349 -0.22718288004398346 -0.14569789171218872
C 4.727074146270752 -0.023564884439110756 0.14063341915607452
C 5.720938205718994 2.707637310028076 0.0
C 4.736012935638428 4.342023849487305 2.1700479984283447
C 8.449702262878418 2.707637310028076 0.0
C 10.698779106140137 2.707637310028076 0.0
C 13.427543640136719 2.707637310028076 0.0
H 1.3087109327316284 -2.216384172439575 -0.22587896883487701
H 1.2318179607391357 0.6885784268379211 -1.8864002227783203
H 0.8842406272888184 0.6344377398490906 1.452538013458252
H 5.605891704559326 -1.150881052017212 -1.3641365766525269
H 5.293198585510254 -0.9039883017539978 1.93150794506073
H 5.061650276184082 3.5501906871795654 -1.777117371559143
H 5.225130558013916 3.530046224594116 4.013494968414307
H 2.6791024208068848 4.552274703979492 2.086805582046509
H 5.550106525421143 6.247283458709717 2.0946290493011475
H 14.172152519226074 4.636783123016357 -0.02176964469254017
H 14.172152519226074 1.72411048412323 -1.6597464084625244
H 14.172019958496094 1.761923909187317 1.6816483736038208
