19
Generated by QM7 dataset
C 2.23222017288208 -1.5128958225250244 1.3004717826843262
C 5.02391242980957 -1.5605735778808594 0.6182428002357483
C 6.041359901428223 1.1080219745635986 0.1341894567012787
C 8.882789611816406 1.1003308296203613 -0.4545736312866211
O 9.334944725036621 -0.3532087206840515 -2.6743972301483154
C 10.088473320007324 3.6370046138763428 -0.8915349841117859
C 8.973478317260742 5.911025524139404 -0.9113771319389343
H 1.5419976711273193 -3.4351630210876465 1.6232936382293701
H 1.11174476146698 -0.6746511459350586 -0.22198612987995148
H 1.910513162612915 -0.4173649251461029 3.0244688987731934
H 5.28407096862793 -2.7403106689453125 -1.0646339654922485
H 6.084597110748291 -2.44836688041687 2.161052942276001
H 5.672202110290527 2.28825044631958 1.798263430595398
H 4.991957187652588 1.92073655128479 -1.4596811532974243
H 9.889995574951172 0.17521540820598602 1.1011812686920166
H 8.58307933807373 0.5692610740661621 -4.0747785568237305
H 12.12104320526123 3.563286542892456 -1.2210276126861572
H 6.963791847229004 6.16218900680542 -0.597493588924408
H 10.081461906433105 7.606431007385254 -1.2499971389770508
