16
Generated by QM7 dataset
C 1.6928355693817139 0.3902095556259155 -0.1416727751493454
N 4.3480143547058105 -0.058732688426971436 -0.7240107655525208
C 5.913387775421143 2.050844192504883 0.19207176566123962
C 8.681685447692871 1.6093852519989014 -0.4924059510231018
O 9.871967315673828 3.123131513595581 -1.794691801071167
C 9.90660572052002 -0.7154502868652344 0.541671097278595
C 12.359243392944336 -1.1905086040496826 0.13976414501667023
H 0.5631572604179382 -1.2083287239074707 -0.8080468773841858
H 0.9916337728500366 2.098314046859741 -1.0751408338546753
H 1.3918211460113525 0.560303807258606 1.8977574110031128
H 4.547928333282471 -0.17942950129508972 -2.642158269882202
H 5.783714771270752 2.248868703842163 2.2494921684265137
H 5.314117908477783 3.8332717418670654 -0.6772778630256653
H 8.723429679870605 -1.9942090511322021 1.6188716888427734
H 13.537034034729004 0.0927855521440506 -0.9474331140518188
H 13.23713493347168 -2.883873224258423 0.8882468938827515
