14
Generated by QM7 dataset
C 6.720943450927734 -2.3475122451782227 0.051570627838373184
O 5.000404357910156 -0.283194363117218 0.17438392341136932
C 5.99347448348999 2.097784996032715 0.01150843221694231
C 8.409299850463867 2.807509422302246 -0.2506154775619507
N 9.080190658569336 5.3036675453186035 -0.38168689608573914
C 11.496583938598633 6.183599472045898 -0.643886387348175
O 12.020509719848633 8.434131622314453 -0.7528479695320129
H 5.6310625076293945 -4.0959625244140625 0.21830116212368011
H 8.068072319030762 -2.2813150882720947 1.6203079223632812
H 7.707248210906982 -2.378352642059326 -1.766723871231079
H 4.452704906463623 3.445915699005127 0.13256429135799408
H 9.94060230255127 1.4487206935882568 -0.36978161334991455
H 7.734724521636963 6.665574073791504 -0.281852662563324
H 12.942224502563477 4.686879634857178 -0.7490496635437012
