15
Generated by QM7 dataset
C 3.592426061630249 -1.6775665283203125 -1.9381976127624512
C 3.30401611328125 0.16720296442508698 0.25167372822761536
C 5.056567192077637 2.400575876235962 0.009939959272742271
C 4.253565788269043 4.788509368896484 -0.23653702437877655
O 7.665428161621094 1.8876663446426392 -0.11336467415094376
C 8.721936225891113 1.035324215888977 2.0822324752807617
O 7.708646297454834 0.6972522735595703 4.128957271575928
H 2.2544431686401367 -3.2417306900024414 -1.7321608066558838
H 5.498724937438965 -2.479037284851074 -2.002523899078369
H 3.2186381816864014 -0.7502968907356262 -3.749481201171875
H 3.6439778804779053 -0.8248465657234192 2.036180019378662
H 1.331860065460205 0.8065351247787476 0.31660470366477966
H 2.2578070163726807 5.257217884063721 -0.2091359943151474
H 5.584348678588867 6.331073760986328 -0.4655340313911438
H 10.743754386901855 0.685195803642273 1.7273797988891602
