16
Generated by QM7 dataset
C 2.069798231124878 -0.01445640530437231 0.10756321251392365
N 4.821863174438477 0.016308337450027466 -0.03930630534887314
C 5.883378982543945 1.9335867166519165 1.736790657043457
C 7.89268684387207 -0.04631718620657921 2.5290205478668213
N 10.050867080688477 0.05837364122271538 0.7699878215789795
C 5.925273895263672 -2.002901792526245 1.5824377536773682
H 1.330140471458435 -1.6419262886047363 -0.9350742697715759
H 1.299507975578308 1.6875253915786743 -0.782856822013855
H 1.3370946645736694 -0.10956632345914841 2.043058395385742
H 4.636972427368164 2.4909613132476807 3.3005011081695557
H 6.582350730895996 3.657564878463745 0.8299866318702698
H 8.4047269821167 -0.12045114487409592 4.526215553283691
H 9.445928573608398 0.2817014753818512 -1.0546183586120605
H 11.098626136779785 -1.5555469989776611 0.755342423915863
H 6.6646294593811035 -3.635247230529785 0.5474914312362671
H 4.694608688354492 -2.7081854343414307 3.0978469848632812
