18
Generated by QM7 dataset
C 1.8277620077133179 -0.23493075370788574 0.02968759834766388
C 4.717285633087158 -0.08736203610897064 -0.04327472671866417
N 5.595119953155518 -1.4800901412963867 -2.289327621459961
C 5.71804666519165 2.6825039386749268 -0.03367491811513901
C 4.699182033538818 4.225238800048828 2.1957106590270996
C 8.51860237121582 2.7414257526397705 0.04763999581336975
C 10.786991119384766 2.798306465148926 0.1088104322552681
H 1.0844193696975708 0.4969034790992737 1.815497636795044
H 1.1765434741973877 -2.1956539154052734 -0.12268102169036865
H 0.9757978916168213 0.8420619368553162 -1.5196799039840698
H 5.458625316619873 -1.078410029411316 1.6208747625350952
H 4.95414400100708 -0.6227214336395264 -3.8893399238586426
H 4.865080833435059 -3.2610437870025635 -2.2868897914886475
H 5.10320520401001 3.6217358112335205 -1.7798385620117188
H 5.107513904571533 3.2981956005096436 4.002099990844727
H 2.6544604301452637 4.499116897583008 2.0536787509918213
H 5.561520576477051 6.108445167541504 2.2513251304626465
H 12.799284934997559 2.830129384994507 0.1535969376564026
