15
Generated by QM7 dataset
C 2.4424331188201904 -0.7022222280502319 -0.21471068263053894
C 5.2393035888671875 -0.20276761054992676 0.20046214759349823
C 5.935610771179199 2.5038115978240967 -0.48450687527656555
S 9.22554874420166 3.082559108734131 0.025114459916949272
O 9.299436569213867 5.965109348297119 -0.971791684627533
O 9.764535903930664 3.1043286323547363 2.699568271636963
O 10.707075119018555 1.6534537076950073 -1.769161581993103
H 1.9839290380477905 -2.6593549251556396 0.2722150385379791
H 1.9193570613861084 -0.39323312044143677 -2.1922144889831543
H 1.284730315208435 0.5410853028297424 0.9657256603240967
H 6.347911357879639 -1.5287694931030273 -0.9414804577827454
H 5.716043472290039 -0.5790498852729797 2.1809139251708984
H 4.888494968414307 3.8545689582824707 0.6808872222900391
H 5.547593593597412 2.8803772926330566 -2.481267213821411
H 10.610604286193848 6.078606605529785 -2.2792930603027344
