19
Generated by QM7 dataset
C 1.965730905532837 -0.14229637384414673 -0.10234756767749786
C 4.784295082092285 0.15200957655906677 -0.01729099452495575
C 6.503378868103027 -1.1251429319381714 -2.059177875518799
C 8.537877082824707 -0.6008384227752686 0.01252888422459364
C 6.4133524894714355 -1.421546459197998 1.8872883319854736
C 8.645156860351562 2.2727925777435303 0.23298433423042297
C 5.8070149421691895 2.8527872562408447 0.20872025191783905
H 1.0846083164215088 0.6252347826957703 1.605832576751709
H 1.4237196445465088 -2.13454008102417 -0.24736514687538147
H 1.16246497631073 0.8474099040031433 -1.7327654361724854
H 6.725894451141357 -0.11875039339065552 -3.851961135864258
H 6.115890979766846 -3.1207125186920166 -2.462709903717041
H 10.291259765625 -1.6759603023529053 -0.028289200738072395
H 6.01469612121582 -3.453927993774414 1.9699639081954956
H 6.550112247467041 -0.695419192314148 3.818815231323242
H 9.543778419494629 2.8891077041625977 1.9911099672317505
H 9.625112533569336 3.1447689533233643 -1.3661963939666748
H 5.28046178817749 4.033601760864258 -1.4066176414489746
H 5.200507640838623 3.7833640575408936 1.9543925523757935
