13
Generated by QM7 dataset
O 4.018105983734131 1.344502329826355 -0.8026611804962158
C 4.576123237609863 3.5573527812957764 -1.2166434526443481
C 7.052023410797119 4.799866676330566 -0.4775337874889374
C 8.955790519714355 2.9197213649749756 0.46150892972946167
C 11.310294151306152 2.7293882369995117 -0.45480039715766907
C 13.07310676574707 0.811240553855896 0.543560802936554
O 15.25538158416748 0.6805848479270935 -0.2149563431739807
H 3.199589729309082 4.833541393280029 -2.1298913955688477
H 6.641801357269287 6.182730197906494 1.0051642656326294
H 7.755398273468018 5.8172760009765625 -2.13828182220459
H 8.314813613891602 1.6533591747283936 1.9543169736862183
H 12.04535961151123 3.9381513595581055 -1.9362133741378784
H 12.320050239562988 -0.47530391812324524 2.002108097076416
