9
Generated by QM7 dataset
N 1.8194283246994019 -0.2049596905708313 -0.007785671856254339
C 4.01111364364624 -0.08874154090881348 -0.0023243632167577744
C 6.675363063812256 0.09575242549180984 0.004176294896751642
C 8.297466278076172 2.118288516998291 0.0014361918438225985
N 10.749197006225586 1.2634330987930298 0.011017103679478168
C 10.504231452941895 -1.2102750539779663 0.019029542803764343
O 8.075178146362305 -2.0696659088134766 0.015533548779785633
H 7.85164213180542 4.112724304199219 -0.0067463223822414875
H 11.977783203125 -2.626927137374878 0.027949050068855286
