16
Generated by QM7 dataset
C 1.704457402229309 0.4188767075538635 0.20603683590888977
C 4.329022407531738 -0.44321635365486145 -0.5804860591888428
C 6.333946228027344 1.5354591608047485 -0.03717091307044029
O 5.848078727722168 3.5798027515411377 0.9607934355735779
C 9.016053199768066 1.0063358545303345 -0.7169243097305298
C 9.836402893066406 -1.1376150846481323 -1.7726954221725464
N 12.280498504638672 -1.6833869218826294 -2.437652111053467
H 0.3101985454559326 -1.051538109779358 -0.20762421190738678
H 1.1519392728805542 2.137129068374634 -0.8060815930366516
H 1.6319485902786255 0.8259614706039429 2.23378849029541
H 4.321728229522705 -0.8425344228744507 -2.6115260124206543
H 4.8048553466796875 -2.1710686683654785 0.45332640409469604
H 10.307378768920898 2.5419840812683105 -0.2919626832008362
H 8.560553550720215 -2.6827874183654785 -2.22800612449646
H 13.614683151245117 -0.5574125051498413 -1.6275076866149902
H 12.735147476196289 -3.5516645908355713 -2.361722946166992
