16
Generated by QM7 dataset
C 1.8760823011398315 -0.02082478255033493 -0.06706637889146805
C 4.768742561340332 -0.04512666165828705 0.045315634459257126
C 5.6552324295043945 -1.3754371404647827 2.458477020263672
C 5.8433732986450195 -1.3923691511154175 -2.280596971511841
C 5.681272506713867 2.6858110427856445 -0.010563569143414497
O 6.945801734924316 3.687346935272217 1.653944969177246
H 1.1955541372299194 0.9287059307098389 -1.778043270111084
H 1.0755754709243774 0.9930889010429382 1.5524855852127075
H 1.1078519821166992 -1.943432092666626 -0.05994211137294769
H 4.9323554039001465 -0.42295849323272705 4.14968729019165
H 7.721930980682373 -1.385547161102295 2.5938570499420166
H 5.006923675537109 -3.3408467769622803 2.512202024459839
H 5.23801851272583 -0.46944576501846313 -4.033696174621582
H 5.225962162017822 -3.366943836212158 -2.3569231033325195
H 7.914626598358154 -1.3706939220428467 -2.263608455657959
H 5.1250505447387695 3.7806427478790283 -1.6996196508407593
