21
Generated by QM7 dataset
C 1.8254187107086182 3.34645938873291 1.9643325805664062
N 4.5694899559021 3.563305377960205 2.0616345405578613
C 5.7320685386657715 2.4711949825286865 -0.2024463564157486
C 8.640035629272461 2.6876440048217773 -0.1340760737657547
C 9.74412727355957 1.2874515056610107 -2.4216272830963135
C 9.489731788635254 5.472684860229492 -0.07968974858522415
N 12.242213249206543 5.717876434326172 0.06203971058130264
H 1.0070161819458008 4.213522434234619 3.6538422107696533
H 1.2234086990356445 1.3680294752120972 1.9077352285385132
H 1.0531255006790161 4.337431907653809 0.32079991698265076
H 5.219933986663818 2.638360023498535 3.6231529712677
H 5.013953685760498 3.431969404220581 -1.8938835859298706
H 5.20385217666626 0.47103312611579895 -0.3468025326728821
H 9.331297874450684 1.7411558628082275 1.5800944566726685
H 9.161486625671387 2.1793832778930664 -4.196325778961182
H 9.102433204650879 -0.6802068948745728 -2.455548048019409
H 11.811506271362305 1.2571024894714355 -2.3655402660369873
H 8.67544937133789 6.44666862487793 1.55494225025177
H 8.822394371032715 6.4530558586120605 -1.777306318283081
H 12.86742877960205 4.9002299308776855 1.6886593103408813
H 12.694197654724121 7.586324691772461 0.1965315192937851
