15
Generated by QM7 dataset
C 2.00656795501709 -0.1197519451379776 0.8389627933502197
C 4.762109756469727 0.0 0.0
N 4.997607707977295 -1.0280487537384033 -2.5260157585144043
C 5.28405237197876 -3.516383409500122 -3.030421495437622
N 5.177698612213135 -4.517881870269775 -5.235732078552246
C 5.672995567321777 2.5722384452819824 0.0
C 6.423746109008789 4.692322254180908 0.0
H 1.7746039628982544 0.6578892469406128 2.744638204574585
H 1.3236587047576904 -2.0745980739593506 0.8621875643730164
H 0.7737483382225037 0.9555777907371521 -0.43376773595809937
H 5.906093597412109 -1.1196815967559814 1.3170068264007568
H 4.482751846313477 0.14195622503757477 -3.9476568698883057
H 5.6385650634765625 -4.707874774932861 -1.3559540510177612
H 4.86551570892334 -3.147376775741577 -6.5590691566467285
H 7.105370044708252 6.587906360626221 -0.0022487740498036146
