17
Generated by QM7 dataset
C 3.766450881958008 -1.706536054611206 2.423762798309326
C 6.462825775146484 -1.278116226196289 1.6066828966140747
C 8.254682540893555 -2.9916443824768066 2.167100191116333
C 6.903377532958984 1.131019949913025 0.12279440462589264
O 6.251932144165039 3.239746570587158 1.7037203311920166
C 9.593006134033203 1.625731348991394 -0.8743385076522827
O 9.667593002319336 3.9910826683044434 -2.180781841278076
H 3.1456191539764404 -0.20448726415634155 3.7038066387176514
H 3.528477668762207 -3.506916046142578 3.4180989265441895
H 2.512277603149414 -1.7315560579299927 0.7779624462127686
H 7.805362701416016 -4.695837020874023 3.2216429710388184
H 10.21389389038086 -2.7838122844696045 1.5976500511169434
H 5.599050521850586 1.1889022588729858 -1.4876680374145508
H 6.996767520904541 2.909290075302124 3.3544907569885254
H 10.207355499267578 0.14726635813713074 -2.181140899658203
H 10.949357032775879 1.7619616985321045 0.6824746131896973
H 8.579469680786133 5.124785900115967 -1.207157015800476
