18
Generated by QM7 dataset
N 1.4808650016784668 0.07400167733430862 -0.438643217086792
C 4.205585479736328 -0.18313336372375488 -0.06527113914489746
C 5.512293338775635 2.401804208755493 -0.10261213034391403
C 8.317119598388672 2.155062675476074 0.29292646050453186
C 10.048221588134766 2.8531084060668945 -1.4221322536468506
C 12.729743003845215 2.6153430938720703 -0.9926731586456299
C 14.463339805603027 3.3239150047302246 -2.691272258758545
H 0.6827202439308167 -1.6783791780471802 -0.49631768465042114
H 1.1391836404800415 0.8741683959960938 -2.157689332962036
H 4.9815826416015625 -1.3999847173690796 -1.550992727279663
H 4.541749000549316 -1.1249161958694458 1.7486958503723145
H 4.744497776031494 3.601477861404419 1.4030271768569946
H 5.112994194030762 3.3617281913757324 -1.8960378170013428
H 8.90988826751709 1.3830149173736572 2.1049282550811768
H 9.443622589111328 3.6390833854675293 -3.2240805625915527
H 13.353277206420898 1.8262124061584473 0.8009226322174072
H 13.950657844543457 4.125631332397461 -4.508055210113525
H 16.463294982910156 3.114835500717163 -2.2850568294525146
