15
Generated by QM7 dataset
N 2.334076404571533 -0.25352564454078674 0.079255111515522
N 4.865950107574463 0.118070088326931 0.11493314057588577
C 5.657556533813477 2.4533557891845703 0.08537782728672028
C 3.9957692623138428 4.752585411071777 0.18400263786315918
C 4.631208419799805 7.050436019897461 -0.6727235913276672
C 8.434131622314453 2.979720115661621 0.10006099939346313
C 10.080233573913574 1.3393244743347168 -0.9006056785583496
H 1.9736299514770508 -2.1362030506134033 0.32675254344940186
H 1.6233125925064087 0.165294349193573 -1.6689872741699219
H 2.124732494354248 4.443709850311279 0.9664437174797058
H 6.439128398895264 7.4536848068237305 -1.5470054149627686
H 3.288936138153076 8.597025871276855 -0.5510819554328918
H 9.07935905456543 4.716246128082275 0.9716971516609192
H 9.457796096801758 -0.4174216091632843 -1.7611113786697388
H 12.093605041503906 1.7181578874588013 -0.8648520708084106
