12
Generated by QM7 dataset
O 4.092787742614746 -1.6992417573928833 -0.7664729356765747
C 3.4252607822418213 0.5076749324798584 -0.5796167850494385
C 5.230875492095947 2.4932668209075928 0.16916827857494354
C 6.967703819274902 3.6198649406433105 -1.7272474765777588
N 4.852816581726074 5.021059036254883 -0.7678713202476501
C 5.233596324920654 7.064911365509033 0.8253000974655151
O 6.7989888191223145 7.221626281738281 2.5201010704040527
H 1.4620622396469116 1.105527639389038 -0.9367561340332031
H 5.909400463104248 2.358245849609375 2.0999202728271484
H 6.78891658782959 3.106785297393799 -3.6970601081848145
H 8.812246322631836 4.261937141418457 -1.1162045001983643
H 3.898240566253662 8.602505683898926 0.3853907585144043
