15
Generated by QM7 dataset
C 1.889726161956787 0.0 0.0
C 4.618490695953369 0.0 0.0
C 6.86756706237793 0.0 0.0
C 9.596331596374512 0.0 0.0
N 10.564287185668945 2.578928232192993 -0.28803205490112305
N 13.118157386779785 2.8174872398376465 -0.2957610487937927
C 13.869550704956055 5.095192909240723 -0.7445709705352783
H 1.1451929807662964 1.9291836023330688 0.022072000429034233
H 1.1450228691101074 -0.9836402535438538 1.6596519947052002
H 1.1450417041778564 -0.9453921914100647 -1.6817429065704346
H 10.305337905883789 -1.1764678955078125 -1.5497076511383057
H 10.306207656860352 -0.8120720386505127 1.768367886543274
H 9.753084182739258 3.671870231628418 1.082794189453125
H 15.908943176269531 5.511084079742432 -0.7950266599655151
H 12.577526092529297 6.6933722496032715 -1.1020883321762085
