13
Generated by QM7 dataset
C 1.967261552810669 -0.09573352336883545 0.3921370804309845
C 4.465177059173584 -0.006973089650273323 0.05202415958046913
C 6.190478324890137 2.2180850505828857 0.0109604112803936
O 8.6787748336792 1.3494534492492676 -0.7488606572151184
N 8.444657325744629 -1.2358242273330688 -1.3335797786712646
C 6.173130512237549 -2.123239517211914 -0.518295168876648
N 5.700510025024414 -4.486720085144043 -0.18319004774093628
H 0.9144951701164246 -1.852044939994812 0.2874651253223419
H 0.8918562531471252 1.6156402826309204 0.7437962293624878
H 6.37270450592041 3.061413049697876 1.8901418447494507
H 5.568833827972412 3.6529541015625 -1.34223473072052
H 9.956588745117188 -2.3409171104431152 -0.9138526320457458
H 3.9131503105163574 -4.72943639755249 0.509148895740509
