15
Generated by QM7 dataset
C 4.640354633331299 -2.1207072734832764 -1.469942331314087
C 4.937022686004639 -0.23392920196056366 0.6397100687026978
O 4.266604900360107 -0.7224612236022949 2.820038318634033
C 6.17670202255249 2.3054659366607666 -0.01277454849332571
O 5.663358211517334 4.124327182769775 1.8954708576202393
C 8.986101150512695 1.9980829954147339 -0.14564119279384613
C 10.384442329406738 2.3535027503967285 -2.2286484241485596
H 3.7785451412200928 -1.2049649953842163 -3.109827756881714
H 3.39593243598938 -3.654503583908081 -0.8553089499473572
H 6.482629776000977 -2.9037721157073975 -1.977466106414795
H 5.370242595672607 3.0109384059906006 -1.781860589981079
H 5.315610408782959 3.1600944995880127 3.433481216430664
H 9.935858726501465 1.4770288467407227 1.6039239168167114
H 9.548786163330078 2.916792392730713 -4.015535831451416
H 12.424193382263184 2.127056837081909 -2.1688575744628906
