13
Generated by QM7 dataset
O 5.009796142578125 0.17761535942554474 3.4930076599121094
C 4.330307483673096 1.9714945554733276 2.1901168823242188
C 5.799342632293701 3.0740551948547363 -0.010847028344869614
C 8.529109001159668 2.3228890895843506 0.02732544019818306
C 10.448390007019043 3.9767208099365234 0.06394833326339722
C 13.003149032592773 3.1513073444366455 0.09826575964689255
C 15.16508960723877 2.4673588275909424 0.12509986758232117
H 2.4616518020629883 2.8432252407073975 2.507024049758911
H 5.59366512298584 5.132174968719482 0.08225978165864944
H 4.905332088470459 2.420758008956909 -1.7580311298370361
H 8.92175579071045 0.3012412488460541 0.039589762687683105
H 10.10852336883545 5.998765468597412 0.06351369619369507
H 17.08340835571289 1.8546149730682373 0.15248200297355652
