12
Generated by QM7 dataset
O 1.889858365058899 -0.009750986471772194 -0.016402821987867355
C 4.573137283325195 0.0 0.0
C 5.484023094177246 2.5722384452819824 0.0
C 6.234773635864258 4.692322254180908 0.0
C 7.121678829193115 7.196870803833008 0.0
C 5.532948017120361 9.161638259887695 -9.448630589758977e-05
H 1.3697490692138672 -1.7688781023025513 -0.015571343712508678
H 5.237224578857422 -1.0214347839355469 -1.670952558517456
H 5.216664791107178 -1.0141403675079346 1.683405876159668
H 9.148674011230469 7.513834476470947 3.779452163144015e-05
H 3.4972217082977295 8.898626327514648 -0.00020786987442988902
H 6.243655204772949 11.084113121032715 -0.00013228082389105111
