17
Generated by QM7 dataset
C 7.270740032196045 -1.3082762956619263 2.6164770126342773
N 6.967666149139404 -0.3862789273262024 0.05516110733151436
C 7.971998691558838 1.8349429368972778 -0.8083492517471313
S 6.198225975036621 3.4923651218414307 -2.8417890071868896
N 10.332663536071777 2.526261568069458 0.0767417773604393
C 12.354934692382812 0.6638985872268677 0.2665458619594574
C 11.19966983795166 5.144798278808594 -0.019124029204249382
H 5.708295822143555 -2.5994505882263184 3.0249602794647217
H 7.229884147644043 0.27622127532958984 3.9441986083984375
H 9.046478271484375 -2.3406524658203125 2.8034465312957764
H 5.241646766662598 -0.7078158259391785 -0.7112173438072205
H 11.712882041931152 -1.2471625804901123 -0.16676832735538483
H 13.148695945739746 0.7371065616607666 2.1717488765716553
H 13.826728820800781 1.1412622928619385 -1.1071527004241943
H 9.634239196777344 6.45197868347168 0.31172922253608704
H 12.033851623535156 5.515997409820557 -1.8748161792755127
H 12.619534492492676 5.442165374755859 1.4537663459777832
