13
Generated by QM7 dataset
C 3.671170949935913 -2.0839521884918213 0.6809061169624329
C 2.9499003887176514 0.33705154061317444 0.5119268298149109
N 4.476439952850342 2.3322622776031494 -0.23317331075668335
C 3.5457119941711426 4.814984321594238 -0.23381581902503967
O 4.682816982269287 6.795511722564697 -0.6340031027793884
N 6.980761528015137 1.7438770532608032 -0.679734468460083
C 8.324848175048828 3.226027011871338 -2.0711209774017334
H 2.3504414558410645 -3.5309154987335205 1.2806674242019653
H 5.5825724601745605 -2.679612874984741 0.23666930198669434
H 1.0094916820526123 0.818062424659729 0.9825819730758667
H 1.511421799659729 4.868747234344482 0.22153259813785553
H 10.335101127624512 2.7683920860290527 -2.3596444129943848
H 7.6316399574279785 4.899322986602783 -3.0929336547851562
