17
Generated by QM7 dataset
C 3.613213062286377 -0.9987202882766724 -2.309075355529785
O 3.3163938522338867 1.3481495380401611 -1.0360990762710571
C 5.685826778411865 2.3599655628204346 -0.13696734607219696
C 6.8345723152160645 4.401342391967773 -1.749621868133545
C 5.6681389808654785 5.071382522583008 0.7509960532188416
C 3.260420083999634 6.541702747344971 0.8647764921188354
O 7.429477214813232 5.6643218994140625 2.732203722000122
H 1.7631334066390991 -1.6093286275863647 -2.99362850189209
H 4.347938537597656 -2.427485466003418 -1.0086979866027832
H 4.885206699371338 -0.7848599553108215 -3.9244132041931152
H 6.949222087860107 1.095889925956726 0.8746219277381897
H 5.848494529724121 4.934981822967529 -3.4620916843414307
H 8.874229431152344 4.4403839111328125 -1.9090769290924072
H 2.035707473754883 6.174037456512451 -0.7615974545478821
H 3.6636877059936523 8.570210456848145 0.8995474576950073
H 2.212944984436035 6.062959671020508 2.5821027755737305
H 7.906330585479736 7.438377857208252 2.6806142330169678
