17
Generated by QM7 dataset
N 2.300250291824341 0.08161727339029312 1.159403681755066
N 4.42059850692749 0.11625595390796661 -0.25834447145462036
C 5.59975004196167 2.264817953109741 -0.3592369258403778
C 4.8873610496521 4.695553779602051 0.9513259530067444
C 6.378562927246094 6.606917381286621 -0.5971912741661072
C 8.798073768615723 5.223486423492432 -1.3158540725708008
C 7.967822551727295 2.529304027557373 -1.9159365892410278
H 1.641567349433899 -1.7349764108657837 1.267722725868225
H 0.8792139887809753 1.0693204402923584 0.29540199041366577
H 5.553281307220459 4.616733074188232 2.9075326919555664
H 2.8587210178375244 5.0777130126953125 0.9015505313873291
H 5.32056188583374 7.1096601486206055 -2.305239200592041
H 6.750725269317627 8.341723442077637 0.4605640470981598
H 9.755937576293945 6.111072063446045 -2.9207229614257812
H 10.115042686462402 5.220897674560547 0.28619903326034546
H 7.494370460510254 2.3031792640686035 -3.9124701023101807
H 9.387290000915527 1.1375584602355957 -1.3648546934127808
