15
Generated by QM7 dataset
C 3.584527015686035 -1.213147521018982 -2.113337516784668
C 3.8958027362823486 0.6337385773658752 -0.41126111149787903
C 6.081233024597168 2.3291819095611572 -0.24500299990177155
C 6.571579456329346 4.169794082641602 -2.357395648956299
C 5.624127388000488 5.123765468597412 0.14806003868579865
C 7.32559871673584 6.508481502532959 1.7399653196334839
C 8.744839668273926 7.670511722564697 3.073469400405884
H 1.9106265306472778 -2.397193193435669 -2.089186668395996
H 4.99346923828125 -1.5760693550109863 -3.5589969158172607
H 2.427183151245117 0.8943696022033691 1.0068650245666504
H 7.721099853515625 1.4960205554962158 0.6675646305084229
H 5.278080463409424 4.23052978515625 -3.945124626159668
H 8.522834777832031 4.522700309753418 -2.8746514320373535
H 3.674988269805908 5.77094030380249 0.19171272218227386
H 10.005533218383789 8.70245361328125 4.2572126388549805
