16
Generated by QM7 dataset
C 4.493126392364502 -0.8308370113372803 -2.7002296447753906
C 4.526933670043945 0.3491080105304718 -0.07388829439878464
N 6.251251697540283 2.5189483165740967 0.013171391561627388
C 5.096043586730957 4.7783613204956055 -1.1556053161621094
C 5.579510688781738 6.132576942443848 1.3597902059555054
O 5.36833381652832 8.291513442993164 2.1036243438720703
C 6.3035783767700195 3.608394145965576 2.584181547164917
H 3.2792985439300537 -2.5063815116882324 -2.707939863204956
H 6.391318321228027 -1.4209039211273193 -3.277087450027466
H 3.7629928588867188 0.4856029152870178 -4.119376182556152
H 5.194063663482666 -1.0924506187438965 1.2586331367492676
H 2.595897912979126 0.8502822518348694 0.4949381649494171
H 3.0876612663269043 4.6748046875 -1.640433430671692
H 6.165590763092041 5.553225040435791 -2.7430131435394287
H 8.170174598693848 3.60988712310791 3.4673073291778564
H 4.886019229888916 2.9250314235687256 3.9272289276123047
