13
Generated by QM7 dataset
O 2.056532144546509 -0.04210309684276581 -1.2809319496154785
C 4.482260227203369 -0.34619781374931335 -0.16062672436237335
C 5.9496893882751465 2.0996179580688477 -0.45073747634887695
C 8.54171371459961 1.8852852582931519 0.7026001811027527
O 9.364934921264648 -0.0023810549173504114 1.755347728729248
C 10.11776351928711 4.114992141723633 0.5163298845291138
C 11.430500030517578 5.960744380950928 0.3649439215660095
H 1.1638823747634888 -1.6358413696289062 -1.0634244680404663
H 5.450272560119629 -1.9135934114456177 -1.103392243385315
H 4.228677749633789 -0.8321220278739929 1.8351320028305054
H 4.92247200012207 3.650024890899658 0.4613766372203827
H 6.132482528686523 2.5767171382904053 -2.4584202766418457
H 12.608819961547852 7.588686466217041 0.23976844549179077
