16
Generated by QM7 dataset
C 1.9128941297531128 -0.5436742305755615 -0.017990192398428917
C 4.667132377624512 -0.6115531921386719 -0.5898024439811707
N 5.566093921661377 -0.3619770407676697 -3.191293954849243
C 6.007893085479736 1.7500187158584595 -1.4583016633987427
C 8.646158218383789 2.293938636779785 -0.5998935699462891
C 8.762792587280273 3.4150564670562744 2.015752077102661
O 6.9197611808776855 3.9040985107421875 3.333968162536621
H 1.6061348915100098 0.18273651599884033 1.8951307535171509
H 1.1162800788879395 -2.450124502182007 -0.11655830591917038
H 0.8637937903404236 0.6605348587036133 -1.3341466188430786
H 5.681442737579346 -1.9327362775802612 0.6004982590675354
H 4.103597164154053 0.025511302053928375 -4.39249849319458
H 4.909149646759033 3.4521894454956055 -1.7720906734466553
H 9.526543617248535 3.646113157272339 -1.8964534997940063
H 9.806790351867676 0.5796923637390137 -0.5912386178970337
H 10.691805839538574 3.8075146675109863 2.715120792388916
