17
Generated by QM7 dataset
C 1.8361902236938477 0.0031369454227387905 0.10334911942481995
C 4.7106146812438965 0.018254755064845085 -0.1467183381319046
C 5.747809886932373 -2.4883158206939697 -1.1744270324707031
O 5.083892345428467 -2.8329074382781982 -3.781606674194336
C 6.060616493225098 -0.7774522304534912 -5.252285957336426
C 5.009720802307129 1.7395306825637817 -4.30778169631958
O 5.545325756072998 2.1055140495300293 -1.6759792566299438
H 1.1540179252624512 1.8622684478759766 0.7055103778839111
H 1.2284164428710938 -1.4048035144805908 1.4932805299758911
H 0.8969396352767944 -0.4342023730278015 -1.6877710819244385
H 5.502126693725586 0.3288312554359436 1.741363763809204
H 5.000328540802002 -4.093278884887695 -0.1037270650267601
H 7.814622402191162 -2.5328755378723145 -1.0223796367645264
H 8.127825736999512 -0.8043052554130554 -5.134291648864746
H 5.5228190422058105 -1.0864224433898926 -7.223176002502441
H 5.870604515075684 3.304469585418701 -5.3509297370910645
H 2.964167833328247 1.8465837240219116 -4.60053825378418
