18
Generated by QM7 dataset
C 7.07122278213501 -1.474874496459961 0.1155378594994545
O 6.3789215087890625 0.2916036546230316 2.01422119140625
C 6.3546576499938965 2.8546202182769775 1.1290924549102783
C 4.802341938018799 4.371994972229004 3.028153896331787
C 9.019795417785645 3.8451201915740967 0.996792733669281
C 10.352675437927246 4.080806732177734 -1.5155225992202759
N 9.531249046325684 6.320850372314453 -0.14144599437713623
H 6.902924060821533 -3.3743138313293457 0.9123219847679138
H 9.03253173828125 -1.1933242082595825 -0.47031503915786743
H 5.807846546173096 -1.3351482152938843 -1.514974594116211
H 5.406053066253662 2.94789719581604 -0.713144838809967
H 5.649203777313232 4.287901878356934 4.916141510009766
H 2.892943859100342 3.5896103382110596 3.1898765563964844
H 4.655642509460449 6.358399391174316 2.471081495285034
H 10.120277404785156 3.369835138320923 2.6585988998413086
H 9.319392204284668 3.67340087890625 -3.234304189682007
H 12.367048263549805 3.7341744899749756 -1.5945130586624146
H 11.017594337463379 7.174742221832275 0.7501267790794373
