20
Generated by QM7 dataset
C 1.8040270805358887 -0.6351180672645569 -0.9423308372497559
C 4.605867385864258 -0.4217679798603058 -1.5478179454803467
C 6.085333824157715 0.6709094643592834 0.6868398785591125
N 8.784618377685547 0.8145097494125366 0.07870709151029587
C 9.36523723602295 3.102231025695801 -1.4517443180084229
C 11.7249755859375 3.4563090801239014 0.21474847197532654
C 10.205957412719727 1.9771448373794556 2.207937002182007
H 0.7806836366653442 -1.4250425100326538 -2.556988477706909
H 0.9953187704086304 1.220933198928833 -0.5161597728729248
H 1.487743616104126 -1.8716225624084473 0.6857060194015503
H 4.837642192840576 0.7744097709655762 -3.2232491970062256
H 5.337247848510742 -2.300307035446167 -2.029320240020752
H 5.842050552368164 -0.5895189642906189 2.3152923583984375
H 5.294445514678955 2.511162519454956 1.2307407855987549
H 8.009528160095215 4.665185928344727 -1.3085219860076904
H 9.747906684875488 2.7315614223480225 -3.4487879276275635
H 13.407795906066895 2.465657949447632 -0.47692906856536865
H 12.220934867858887 5.400610446929932 0.6995388269424438
H 11.305418968200684 0.6435651183128357 3.3416972160339355
H 9.103415489196777 3.189725399017334 3.4793827533721924
