19
Generated by QM7 dataset
C 2.8431308269500732 -1.3184618949890137 -0.13012653589248657
C 5.689852237701416 -0.9357545971870422 -0.0691450759768486
C 6.387274265289307 1.85659921169281 -0.3685343861579895
C 9.247393608093262 2.277932643890381 -0.27196937799453735
O 10.472654342651367 0.9758167862892151 -2.306391954421997
C 9.93032169342041 5.086688995361328 -0.46494820713996887
O 12.6090087890625 5.3699212074279785 -0.3746381998062134
H 2.385061264038086 -3.3224596977233887 0.09596029669046402
H 2.0470268726348877 -0.6771455407142639 -1.9290891885757446
H 1.9198294878005981 -0.27274417877197266 1.3983027935028076
H 6.550943374633789 -2.0544536113739014 -1.583155870437622
H 6.433308124542236 -1.653756022453308 1.7251876592636108
H 5.473459243774414 2.961578845977783 1.1285066604614258
H 5.644952297210693 2.534651756286621 -2.1824448108673096
H 10.035635948181152 1.50235116481781 1.480392575263977
H 9.610788345336914 1.428160548210144 -3.867173433303833
H 9.10369873046875 6.177004337310791 1.0842304229736328
H 9.290271759033203 5.881224632263184 -2.263929605484009
H 13.300572395324707 3.912659168243408 -1.276566743850708
