15
Generated by QM7 dataset
C 2.229158639907837 0.4986798167228699 -0.9860023856163025
C 4.743288040161133 -0.2941169738769531 -0.007464418187737465
C 6.751065731048584 -1.278286337852478 -1.7344095706939697
N 7.081370830535889 1.150162935256958 -0.41042962670326233
C 7.039078712463379 3.315014362335205 -1.8769515752792358
N 6.002204895019531 3.722703695297241 -4.056164741516113
O 6.494478702545166 6.214780330657959 -4.797995567321777
H 1.6422287225723267 2.282467842102051 -0.11854252219200134
H 0.8137160539627075 -0.9319751262664795 -0.5046135783195496
H 2.1969199180603027 0.7169432044029236 -3.041778802871704
H 4.631133079528809 -1.0420138835906982 1.8949795961380005
H 6.5113725662231445 -1.1515612602233887 -3.7599313259124756
H 8.01674747467041 -2.7262322902679443 -1.0474940538406372
H 8.124707221984863 4.82696533203125 -0.9304444789886475
H 5.65719747543335 6.3096442222595215 -6.43686056137085
