17
Generated by QM7 dataset
N 3.246908664703369 -0.4024738669395447 -2.3516886234283447
C 5.01329231262207 -0.2142004519701004 -0.25428155064582825
C 5.851990699768066 2.463465929031372 0.02430187724530697
C 8.272502899169922 3.2262349128723145 -0.080955870449543
C 9.14207935333252 5.831638336181641 0.19806219637393951
C 9.506966590881348 6.897632598876953 2.8118369579315186
N 11.66488265991211 6.191234111785889 1.2531719207763672
H 2.685943365097046 -2.234544515609741 -2.5306835174560547
H 4.180187702178955 0.024660926312208176 -3.981785297393799
H 6.611263751983643 -1.4922033548355103 -0.5707728862762451
H 4.071018218994141 -0.8120341897010803 1.4891231060028076
H 4.372807502746582 3.8491830825805664 0.3584999442100525
H 9.737003326416016 1.820222020149231 -0.4106563925743103
H 8.602373123168945 7.114913463592529 -1.3086353540420532
H 9.141228675842285 5.701946258544922 4.432069301605225
H 9.193253517150879 8.898116111755371 3.104196310043335
H 12.50053882598877 7.749558925628662 0.48263606429100037
