17
Generated by QM7 dataset
C 6.01985502243042 -2.116020917892456 -1.1190580129623413
C 4.7280192375183105 0.12007319927215576 0.13793110847473145
C 6.262798309326172 2.5606167316436768 -0.04399282485246658
C 6.641839504241943 3.5194637775421143 -2.7557308673858643
C 6.226666450500488 6.26517915725708 -2.41949200630188
C 5.286678791046143 6.646677017211914 -0.1265549659729004
O 4.9702253341674805 4.529862403869629 1.3547824621200562
H 4.889250755310059 -3.828490734100342 -0.8603734374046326
H 7.886129379272461 -2.450502395629883 -0.29305872321128845
H 6.2520833015441895 -1.812247395515442 -3.1506080627441406
H 4.390513896942139 -0.31836217641830444 2.1366567611694336
H 2.8489134311676025 0.4040612280368805 -0.6925657391548157
H 8.106301307678223 2.2860960960388184 0.8705023527145386
H 5.255743980407715 2.7467737197875977 -4.084529876708984
H 8.540976524353027 3.082540273666382 -3.445858955383301
H 6.535844802856445 7.697572708129883 -3.8367109298706055
H 4.664883613586426 8.39113998413086 0.7212328910827637
