12
Generated by QM7 dataset
N 2.2070300579071045 -0.1383090615272522 -1.1565313339233398
C 4.504861354827881 -0.10847028344869614 0.012850137427449226
O 5.388535022735596 -2.044796943664551 0.9223186373710632
C 5.893110752105713 2.363178014755249 0.0
C 4.632115364074707 4.562989234924316 0.12874704599380493
C 8.550065994262695 2.363178014755249 0.0
C 10.799141883850098 2.363178014755249 0.0
H 1.5619531869888306 1.3065377473831177 -2.218576192855835
H 1.338058352470398 -1.835169792175293 -1.2951993942260742
H 2.589850664138794 4.655963897705078 0.25660592317581177
H 5.6361083984375 6.3531646728515625 0.17931611835956573
H 12.811700820922852 2.3387439250946045 0.009524219669401646
