15
Generated by QM7 dataset
C 1.6800799369812012 1.6772453784942627 -1.0483067035675049
C 4.320764541625977 0.751846432685852 -0.40118885040283203
C 5.68091344833374 2.6048362255096436 1.2384320497512817
O 8.3702392578125 2.6278531551361084 0.9165549874305725
C 7.025472640991211 4.852438926696777 0.11961966753005981
C 7.493444442749023 7.107845783233643 1.6824610233306885
O 5.945380687713623 8.822488784790039 1.785980224609375
H 0.6828903555870056 0.27289533615112305 -2.192762613296509
H 1.7590705156326294 3.4461424350738525 -2.119441270828247
H 0.5731539130210876 2.02514386177063 0.6649001240730286
H 5.3698835372924805 0.4030974805355072 -2.1536831855773926
H 4.189730644226074 -1.0582466125488281 0.5963597893714905
H 4.928953647613525 2.7269692420959473 3.1368887424468994
H 6.842830657958984 5.191739082336426 -1.8895372152328491
H 9.298699378967285 7.174288749694824 2.721885919570923
