17
Generated by QM7 dataset
C 1.7555556297302246 0.148362398147583 0.03894725441932678
C 4.618131637573242 -0.0320686511695385 0.019634254276752472
C 5.871700286865234 2.5375242233276367 -0.05448080599308014
O 4.719742298126221 4.546888828277588 -0.08792895823717117
C 8.694478988647461 2.483515977859497 -0.08035115152597427
C 10.154253959655762 4.469032287597656 -1.5193209648132324
C 10.176779747009277 4.480464935302734 1.3191044330596924
H 0.9139849543571472 -1.739795207977295 0.09293673187494278
H 1.0605143308639526 1.1183966398239136 -1.6521875858306885
H 1.0880664587020874 1.2015445232391357 1.691191554069519
H 5.231612205505371 -1.1049795150756836 -1.6404145956039429
H 5.2597880363464355 -1.020886778831482 1.7208980321884155
H 9.50817584991455 0.5979660153388977 -0.07944408804178238
H 9.106760025024414 5.9553961753845215 -2.467642068862915
H 11.86024284362793 3.893648386001587 -2.4934370517730713
H 11.898244857788086 3.9127535820007324 2.2705814838409424
H 9.144309043884277 5.974671363830566 2.271601915359497
