14
Generated by QM7 dataset
O 2.21817946434021 -0.05610596761107445 -1.34754478931427
C 4.331724643707275 0.18763090670108795 -0.4368668794631958
N 5.561917781829834 2.4230635166168213 0.03424183651804924
C 8.089804649353027 2.613396644592285 1.126503586769104
C 8.615110397338867 5.457264423370361 1.2750171422958374
C 6.242048740386963 6.584202766418457 0.21321779489517212
C 4.606245040893555 4.778777122497559 -0.4462210237979889
H 5.478240489959717 -1.465785026550293 0.1071096807718277
H 9.436290740966797 1.6231424808502197 -0.09510991722345352
H 8.097533226013184 1.7094085216522217 2.9889230728149414
H 10.264198303222656 5.9784698486328125 0.14180505275726318
H 8.925176620483398 6.064679145812988 3.2270097732543945
H 5.909721851348877 8.58835220336914 0.012925726361572742
H 2.742767333984375 5.010514259338379 -1.2619590759277344
