15
Generated by QM7 dataset
C 6.13501501083374 -2.5609378814697266 1.4222835302352905
C 4.994943141937256 -0.35781964659690857 0.032692261040210724
O 2.8557920455932617 -0.49221697449684143 -0.8815005421638489
C 6.395589351654053 2.0655462741851807 -0.19621026515960693
C 8.906166076660156 2.451730728149414 -0.17156822979450226
N 10.701745986938477 0.6010463237762451 -0.10470972210168839
N 9.861705780029297 4.854536533355713 -0.2732354998588562
H 7.372445106506348 -1.9217569828033447 2.9477081298828125
H 7.167050838470459 -3.7682273387908936 0.10384044796228409
H 4.615240573883057 -3.660531759262085 2.293579578399658
H 5.123047351837158 3.663120746612549 -0.4064801037311554
H 10.152308464050293 -1.0131011009216309 -0.9875897765159607
H 12.325228691101074 1.2414555549621582 -0.9136258959770203
H 8.583646774291992 6.2183518409729 0.1745917946100235
H 11.436320304870605 5.012026309967041 0.8171553611755371
