17
Generated by QM7 dataset
C 1.5168075561523438 1.5296765565872192 2.0620503425598145
C 4.339472770690918 1.461665391921997 2.0310587882995605
C 5.756124496459961 2.2800490856170654 0.09339026361703873
C 8.597970008850098 2.1935184001922607 0.060168880969285965
C 9.746110916137695 4.8400797843933105 -0.14475302398204803
C 12.524272918701172 4.72926664352417 -0.2031266689300537
C 14.79069709777832 4.644153118133545 -0.24857456982135773
H 0.769137442111969 -0.38650569319725037 2.2743988037109375
H 0.7342153191566467 2.3399345874786377 0.3273005783557892
H 0.8581057190895081 2.666271209716797 3.659001111984253
H 5.2449727058410645 0.6886729001998901 3.707566976547241
H 4.843273639678955 3.0378103256225586 -1.5870676040649414
H 9.19623851776123 1.036665916442871 -1.5538840293884277
H 9.320582389831543 1.2450082302093506 1.7578043937683105
H 9.13676929473877 6.001051902770996 1.4604370594024658
H 9.061274528503418 5.778687953948975 -1.8611345291137695
H 16.803010940551758 4.570056915283203 -0.2874840497970581
