16
Generated by QM7 dataset
N 1.4346423149108887 0.03779452294111252 0.1678265780210495
C 4.184382915496826 0.04125272110104561 0.33686259388923645
C 5.7525153160095215 -1.5915462970733643 -1.3764009475708008
C 4.838946342468262 -2.6646461486816406 -3.8159239292144775
O 5.11318302154541 -0.6851391196250916 -5.658029079437256
C 4.86630916595459 1.6775476932525635 -4.338319778442383
C 5.7699384689331055 1.2020736932754517 -1.7124887704849243
H 0.6995010375976562 1.6728990077972412 0.8761715292930603
H 0.6816809177398682 -1.3843755722045898 1.2290022373199463
H 4.898396968841553 0.26681044697761536 2.2540652751922607
H 7.4374518394470215 -2.494154930114746 -0.6609506011009216
H 5.976825714111328 -4.279964923858643 -4.423792362213135
H 2.8542234897613525 -3.244281768798828 -3.737821578979492
H 6.0234832763671875 3.0881149768829346 -5.3100361824035645
H 2.8893346786499023 2.2839419841766357 -4.402929782867432
H 7.466818332672119 2.2277791500091553 -1.2288322448730469
