15
Generated by QM7 dataset
C 2.4306602478027344 0.3524339199066162 0.6325669288635254
N 5.169856071472168 0.11515991389751434 0.28447937965393066
C 6.331773281097412 -2.238645076751709 0.44478484988212585
C 5.322054386138916 -4.511173248291016 0.8976954817771912
C 6.509199619293213 2.2891764640808105 -0.33261069655418396
N 5.640171051025391 4.559380054473877 -0.6252914667129517
O 7.639425754547119 6.181332111358643 -1.2417768239974976
H 1.8031010627746582 2.3191285133361816 0.7791340947151184
H 1.8316737413406372 -0.5850970149040222 2.37984561920166
H 1.4325447082519531 -0.5106229186058044 -0.963193416595459
H 8.366384506225586 -2.141777753829956 0.14152158796787262
H 3.317659854888916 -4.783236980438232 1.2120513916015625
H 6.514112949371338 -6.179347991943359 0.9575998187065125
H 8.551634788513184 1.9217191934585571 -0.5835285186767578
H 6.7868571281433105 7.806156158447266 -1.4108316898345947
