17
Generated by QM7 dataset
C 3.516270160675049 -1.2229551076889038 -0.022733405232429504
C 6.321946620941162 -0.6280126571655273 0.06604592502117157
N 6.654538154602051 2.091435432434082 -0.33368784189224243
C 8.985269546508789 2.7792959213256836 -0.24759191274642944
N 9.756750106811523 5.21165657043457 -0.5634974241256714
C 12.150674819946289 6.178194999694824 -0.5144023299217224
C 12.804387092590332 8.59366226196289 -0.8394919633865356
H 3.1952056884765625 -3.2425811290740967 0.28296759724617004
H 2.709394931793213 -0.7059072256088257 -1.8567125797271729
H 2.4916985034942627 -0.17258869111537933 1.4363808631896973
H 7.295684814453125 -1.705024242401123 -1.4121545553207397
H 7.08118200302124 -1.1937966346740723 1.9090391397476196
H 10.553478240966797 1.4403303861618042 0.09172730892896652
H 8.333484649658203 6.457534313201904 -0.8766817450523376
H 13.609315872192383 4.769063949584961 -0.17020763456821442
H 11.409466743469238 10.054703712463379 -1.186880350112915
H 14.7738037109375 9.161354064941406 -0.7634304761886597
