19
Generated by QM7 dataset
C 0.9676153659820557 0.952894389629364 0.5357184410095215
C 3.648021697998047 0.167089581489563 -0.11992201954126358
C 5.51034688949585 2.3364951610565186 0.2142193615436554
O 7.967973709106445 1.4590386152267456 -0.4698048233985901
C 9.835816383361816 3.3947417736053467 -0.14550891518592834
C 12.378556251525879 2.3285584449768066 -0.9817883372306824
O 12.2560453414917 1.6223677396774292 -3.5809743404388428
H -0.3212345540523529 -0.6507083177566528 0.3281887471675873
H 0.3151685297489166 2.466413974761963 -0.713598370552063
H 0.8479201197624207 1.6250321865081787 2.4878056049346924
H 3.722136974334717 -0.5220557451248169 -2.073312997817993
H 4.224180221557617 -1.4297857284545898 1.069377064704895
H 5.524614334106445 2.968381881713867 2.186413049697876
H 4.983888149261475 3.9275312423706055 -1.0024241209030151
H 9.917320251464844 3.964456558227539 1.8418782949447632
H 9.327631950378418 5.019169330596924 -1.3250948190689087
H 12.863139152526855 0.6356660723686218 0.10321684181690216
H 13.87977409362793 3.7303194999694824 -0.7550022602081299
H 10.70308780670166 0.6324346661567688 -3.7337775230407715
