17
Generated by QM7 dataset
C 1.910097360610962 0.1239660307765007 0.7490307688713074
C 4.662539958953857 0.06183183938264847 -0.09151943773031235
C 5.41045618057251 -2.4753711223602295 -1.2879050970077515
C 5.074122428894043 -2.0605573654174805 -4.061021327972412
C 7.028382778167725 -0.6061485409736633 -5.532116413116455
C 4.77314567565918 0.7219887375831604 -4.465536117553711
O 5.019490718841553 1.9482510089874268 -2.0317769050598145
H 1.4296345710754395 1.996023178100586 1.4891419410705566
H 1.5457392930984497 -1.2824815511703491 2.219785690307617
H 0.6278048157691956 -0.23128357529640198 -0.8372431397438049
H 5.890994548797607 0.5109063386917114 1.5118753910064697
H 4.282459735870361 -4.053046703338623 -0.570432722568512
H 7.4007720947265625 -2.890336036682129 -0.8882657885551453
H 3.7947213649749756 -3.3421695232391357 -4.997890949249268
H 8.85181713104248 -0.23893697559833527 -4.6765618324279785
H 7.0990777015686035 -0.8797242045402527 -7.560321807861328
H 3.3213448524475098 1.3822779655456543 -5.748622417449951
