17
Generated by QM7 dataset
C 1.84520423412323 0.09405166655778885 -0.05686185881495476
C 4.731893062591553 -0.02983877621591091 0.014437507838010788
C 5.7169694900512695 0.013719411566853523 2.7190701961517334
C 5.7570319175720215 -2.311248540878296 -1.5171855688095093
N 6.550754547119141 -1.2926105260849 -4.034149646759033
C 6.518270015716553 1.1353096961975098 -3.704789161682129
N 5.796508312225342 2.0594990253448486 -1.4210740327835083
H 1.131794810295105 0.09733979403972626 -2.0012199878692627
H 1.152430534362793 1.8209401369094849 0.852020800113678
H 1.0089436769485474 -1.525216817855835 0.9238682389259338
H 7.787467002868652 0.005669178441166878 2.770357370376587
H 5.046116828918457 -1.6314761638641357 3.780510425567627
H 5.089845180511475 1.7191972732543945 3.712480306625366
H 4.32603645324707 -3.7834396362304688 -1.77670156955719
H 7.4147186279296875 -3.169996738433838 -0.6189042329788208
H 6.981139659881592 2.5382046699523926 -5.170309543609619
H 4.904349327087402 3.752542495727539 -1.3734718561172485
