15
Generated by QM7 dataset
C 1.8175764083862305 0.056049276143312454 -0.08390384167432785
C 4.620720386505127 0.11995981633663177 -0.4091823995113373
C 6.088395118713379 2.009289026260376 0.43308743834495544
S 9.33588981628418 1.942317247390747 -0.06054682657122612
C 10.38831615447998 -0.04249994084239006 2.4313971996307373
O 9.89566421508789 0.6650513410568237 -2.421778440475464
O 10.322213172912598 4.451042175292969 0.4334464967250824
H 1.27091646194458 -1.6307770013809204 0.9789348244667053
H 0.8954089283943176 -0.01198086328804493 -1.93337881565094
H 1.1109132766723633 1.7149264812469482 0.9293673038482666
H 5.4490251541137695 -1.465633749961853 -1.429067611694336
H 5.343654155731201 3.6402173042297363 1.413930892944336
H 9.828994750976562 0.7855780720710754 4.236501216888428
H 12.446511268615723 -0.16327233612537384 2.326063871383667
H 9.567891120910645 -1.9211522340774536 2.198885440826416
