15
Generated by QM7 dataset
C 1.2407186031341553 0.27960386872291565 -0.3568747937679291
C 3.8753936290740967 0.2756543457508087 0.6657505035400391
C 5.725473403930664 1.746466040611267 -0.2496517151594162
C 8.353402137756348 1.7501509189605713 0.7830080389976501
N 9.990962982177734 3.38797664642334 -0.0716773122549057
N 9.153247833251953 0.07806458324193954 2.6207666397094727
O 11.797106742858887 -0.09628154337406158 2.7562034130096436
H 0.7757136821746826 -1.5885604619979858 -1.1121793985366821
H 0.9875141978263855 1.6704045534133911 -1.8672950267791748
H -0.09915392845869064 0.7225556969642639 1.1550005674362183
H 4.201427936553955 -0.9907833933830261 2.247337818145752
H 5.3608317375183105 3.0335583686828613 -1.803365707397461
H 9.183011054992676 4.529824733734131 -1.4106616973876953
H 8.278172492980957 -1.6273565292358398 2.693502187728882
H 12.327080726623535 1.4981749057769775 1.9475706815719604
