16
Generated by QM7 dataset
C 1.765023112297058 0.1551654189825058 -0.2877108156681061
C 4.505995273590088 0.4101272523403168 0.27185600996017456
O 6.07681131362915 -1.4159151315689087 -0.9553132653236389
C 6.3683013916015625 1.173652172088623 -1.7527587413787842
C 8.948684692382812 2.3001179695129395 -1.1842535734176636
C 11.096207618713379 2.214059829711914 -3.059466600418091
N 9.760397911071777 4.567770481109619 -2.55307674407959
H 0.7855024337768555 1.9227018356323242 0.1484568864107132
H 0.9381923079490662 -1.3432362079620361 0.8726566433906555
H 1.4147812128067017 -0.30216720700263977 -2.2744176387786865
H 4.898226737976074 0.8644363284111023 2.2244722843170166
H 5.583876132965088 1.650108814239502 -3.59053635597229
H 9.501920700073242 2.2415175437927246 0.7970108985900879
H 10.754110336303711 1.3496235609054565 -4.8812761306762695
H 13.006021499633789 2.0560410022735596 -2.347191095352173
H 10.800673484802246 5.716856002807617 -1.4034618139266968
