20
Generated by QM7 dataset
C 1.5565862655639648 -0.35721492767333984 0.13810119032859802
C 4.3851470947265625 0.18260423839092255 0.026097116991877556
C 5.183027267456055 2.9343855381011963 -0.11429063975811005
C 3.5721681118011475 4.896129131317139 -0.2116115391254425
C 8.018220901489258 3.399409532546997 -0.0632869303226471
C 9.355448722839355 2.5265071392059326 -2.4847819805145264
N 12.04377269744873 3.168466091156006 -2.429072856903076
H 1.2317991256713867 -2.398440361022949 0.23632915318012238
H 0.5872890949249268 0.35052528977394104 -1.547515630722046
H 0.6912996172904968 0.4995113015174866 1.8106032609939575
H 5.146234512329102 -0.8150388598442078 -1.6218196153640747
H 5.262187957763672 -0.664503276348114 1.702756643295288
H 1.5357426404953003 4.656587600708008 -0.2201153039932251
H 4.248066425323486 6.83447790145874 -0.2789613604545593
H 8.828913688659668 2.4317562580108643 1.5824755430221558
H 8.394881248474121 5.420169353485107 0.22476401925086975
H 8.482999801635742 3.4059855937957764 -4.144717216491699
H 9.185297012329102 0.4757574498653412 -2.702289581298828
H 12.242741584777832 5.083401203155518 -2.3558647632598877
H 12.859492301940918 2.609182596206665 -4.082242965698242
