18
Generated by QM7 dataset
C 1.4294077157974243 0.03974094241857529 0.1585858166217804
C 4.239600658416748 0.042197585105895996 0.3374105989933014
C 5.890710830688477 -1.5967241525650024 -1.3220335245132446
C 5.0686421394348145 -2.733602285385132 -3.771080732345581
N 5.504016399383545 -0.7028269171714783 -5.627037525177002
C 5.106682300567627 1.725433349609375 -4.320764541625977
C 5.913293361663818 1.2040767669677734 -1.6667006015777588
H 0.6772022843360901 1.8134379386901855 0.912851095199585
H 0.656264066696167 -1.5101368427276611 1.2901726961135864
H 0.721932053565979 -0.1746106892824173 -1.7699174880981445
H 4.83306884765625 0.27635353803634644 2.2875890731811523
H 7.536530017852783 -2.496838331222534 -0.5111709237098694
H 6.192292213439941 -4.40079402923584 -4.25689172744751
H 3.076209545135498 -3.285855770111084 -3.748422861099243
H 7.364546298980713 -0.7797765731811523 -6.123714447021484
H 6.258281707763672 3.2050321102142334 -5.194365978240967
H 3.124303102493286 2.3009493350982666 -4.438399791717529
H 7.574457168579102 2.2478859424591064 -1.0945860147476196
