18
Generated by QM7 dataset
C 5.311642169952393 -2.999070882797241 2.6210501194000244
C 4.63018798828125 -0.2604420483112335 2.184051036834717
C 2.435762405395508 0.6435273289680481 3.107257843017578
C 6.54062557220459 1.2280385494232178 0.6224191188812256
N 5.694576263427734 3.7643532752990723 -0.04968089982867241
C 9.024216651916504 1.4858349561691284 1.9836643934249878
C 11.232758522033691 0.5732673406600952 1.1392024755477905
H 7.0173468589782715 -3.155332326889038 3.7787909507751465
H 5.645783424377441 -3.9525322914123535 0.8155112862586975
H 3.8063807487487793 -4.030426979064941 3.5967347621917725
H 1.1610288619995117 -0.5528393983840942 4.183891296386719
H 1.8279509544372559 2.5805912017822266 2.8364033699035645
H 6.821760177612305 0.20384475588798523 -1.159214735031128
H 5.3320136070251465 4.746670722961426 1.5602712631225586
H 4.033147811889648 3.617710590362549 -1.0035390853881836
H 8.997968673706055 2.4832513332366943 3.7800192832946777
H 11.370501518249512 -0.42193806171417236 -0.6486673951148987
H 12.956643104553223 0.8344841599464417 2.2190675735473633
