15
Generated by QM7 dataset
C 4.474153518676758 -2.0163187980651855 -1.0730998516082764
N 6.945764064788818 -0.8708614110946655 -0.6521255970001221
N 6.972617149353027 1.6901899576187134 -0.5767633318901062
C 9.213359832763672 2.629213809967041 -0.33758068084716797
C 9.443868637084961 5.395791530609131 -0.24778088927268982
C 8.906014442443848 6.8099684715271 2.160675048828125
O 11.440326690673828 6.290425777435303 1.3627760410308838
H 4.667056560516357 -4.070942401885986 -1.1884865760803223
H 3.6527271270751953 -1.3536674976348877 -2.8515777587890625
H 3.177196502685547 -1.567206621170044 0.4733197093009949
H 7.722346782684326 -1.6409626007080078 0.9433512687683105
H 10.958691596984863 1.4900867938995361 -0.21620357036590576
H 9.153531074523926 6.373819351196289 -2.0219881534576416
H 8.174728393554688 5.770770072937012 3.7640321254730225
H 8.241700172424316 8.739113807678223 2.0173771381378174
