10
Generated by QM7 dataset
O 5.316612243652344 6.262646675109863 2.2423300743103027
C 6.156746864318848 7.595981121063232 0.5556172728538513
O 8.402345657348633 7.390964508056641 -0.7117464542388916
N 9.775175094604492 5.300776481628418 0.19464179873466492
C 11.871769905090332 5.152470588684082 -1.0170128345489502
C 13.39415168762207 3.060694932937622 -0.20792657136917114
C 14.673572540283203 1.3105628490447998 0.4639844596385956
H 5.148332118988037 9.24537181854248 -0.2141815572977066
H 12.531095504760742 6.42654275894165 -2.5230300426483154
H 15.787660598754883 -0.24978400766849518 1.0791091918945312
