14
Generated by QM7 dataset
O 1.7425543069839478 -0.016005979850888252 0.20692500472068787
C 4.450040340423584 0.011357254348695278 0.028969502076506615
C 5.803859233856201 1.9928863048553467 1.6914371252059937
C 7.819063186645508 -0.02479320764541626 2.3334906101226807
C 5.850856781005859 -2.0442111492156982 1.5569264888763428
C 10.086715698242188 0.048282504081726074 0.794856607913971
N 11.883637428283691 0.09628154337406158 -0.45684128999710083
H 1.2004107236862183 -1.4102081060409546 -0.8631702065467834
H 5.050028324127197 0.09482645988464355 -1.9544681310653687
H 4.696914196014404 2.609503984451294 3.3319461345672607
H 6.4700822830200195 3.675611734390259 0.6903547644615173
H 8.276811599731445 -0.08641717582941055 4.35381555557251
H 6.555081844329834 -3.640538454055786 0.44644778966903687
H 4.759369850158691 -2.793884515762329 3.1517040729522705
