18
Generated by QM7 dataset
C 1.8803341388702393 0.05007774382829666 0.23982514441013336
C 4.4104695320129395 0.014191843569278717 0.07379380613565445
C 5.928675651550293 -2.3992340564727783 -0.03575361892580986
C 7.810313701629639 -2.34271240234375 -2.248528480529785
N 9.437821388244629 -0.08418729901313782 -2.22910213470459
C 7.872277736663818 2.215892791748047 -2.3103036880493164
C 5.992151260375977 2.382888078689575 -0.10159167647361755
H 0.8334448337554932 1.8142316341400146 0.28710609674453735
H 0.7872599363327026 -1.6835192441940308 0.3349539637565613
H 4.699030876159668 -4.055030822753906 -0.22788207232952118
H 6.964018821716309 -2.614133834838867 1.7479588985443115
H 9.017206192016602 -4.02311372756958 -2.1573679447174072
H 6.795398712158203 -2.4443795680999756 -4.054161548614502
H 10.44500732421875 -0.075929194688797 -0.5850592255592346
H 9.123994827270508 3.864546537399292 -2.2626068592071533
H 6.860764026641846 2.2967920303344727 -4.118544578552246
H 7.0325212478637695 2.6196706295013428 1.6768485307693481
H 4.806424140930176 4.064838886260986 -0.34037747979164124
