10
Generated by QM7 dataset
O 1.6282069683074951 2.3246843814849854 -0.010015548206865788
C 3.8184561729431152 1.5764851570129395 -0.006481760647147894
N 5.830504417419434 3.184415340423584 -0.003609376959502697
C 8.289132118225098 2.388084650039673 -0.0013795000268146396
O 8.989370346069336 0.18661046028137207 -0.00020786987442988902
C 10.145731925964355 4.393575668334961 -0.00018897261179517955
C 11.68735122680664 6.059747219085693 0.0007747877389192581
H 4.321765899658203 -0.4454840421676636 -0.005536897573620081
H 5.426008224487305 5.046627044677734 -0.004686520900577307
H 13.075902938842773 7.519220352172852 0.0016251645283773541
