15
Generated by QM7 dataset
C 2.109973669052124 -0.20015978813171387 0.231170192360878
C 4.599215507507324 0.022544432431459427 -0.12443846464157104
C 6.11693000793457 2.408267021179199 -0.06309795379638672
C 8.485815048217773 1.6842373609542847 -1.5321332216262817
C 8.490766525268555 -1.1387490034103394 -1.342801570892334
C 10.466437339782715 -2.675398588180542 -1.6617873907089233
O 6.119481086730957 -2.022517204284668 -0.6957782506942749
H 1.1998627185821533 -2.0332131385803223 0.10828130692243576
H 0.9414426684379578 1.4301069974899292 0.6464186310768127
H 6.601285934448242 2.8841378688812256 1.8946961164474487
H 5.143721103668213 4.016197204589844 -0.924397349357605
H 8.306234359741211 2.2558417320251465 -3.514796018600464
H 10.180427551269531 2.556950569152832 -0.7310783267021179
H 10.255166053771973 -4.703263759613037 -1.4456026554107666
H 12.319710731506348 -1.9457753896713257 -2.1403415203094482
