15
Generated by QM7 dataset
C 1.8447695970535278 -0.029800981283187866 0.24007080495357513
C 4.703641891479492 -0.026097116991877556 0.05332807078957558
C 5.957191467285156 2.203439474105835 1.4088475704193115
N 8.214054107666016 1.0987623929977417 2.445211172103882
C 8.057376861572266 -1.5062062740325928 2.471818447113037
O 9.600072860717773 -2.9472358226776123 3.3754477500915527
N 5.836248874664307 -2.1880195140838623 1.2712376117706299
H 1.055204153060913 -1.6903033256530762 -0.7090441584587097
H 1.0501774549484253 1.6614093780517578 -0.6472690105438232
H 1.2147349119186401 -0.0860392302274704 2.210922956466675
H 5.295182704925537 -0.07566463202238083 -1.931300163269043
H 4.826643943786621 2.9205338954925537 2.9870522022247314
H 6.440073490142822 3.75516939163208 0.13643822073936462
H 9.585957527160645 1.996798038482666 3.4257333278656006
H 5.592682361602783 -4.014760971069336 0.7654146552085876
