15
Generated by QM7 dataset
C 1.3332773447036743 0.22999857366085052 -0.06804903596639633
C 4.1183180809021 -0.054764263331890106 -0.4459564685821533
C 5.8422017097473145 1.496455192565918 0.5768578052520752
C 8.526028633117676 1.1880707740783691 0.18509867787361145
C 10.238101959228516 2.7417657375335693 1.2125049829483032
C 12.956963539123535 2.338252544403076 0.7461961507797241
O 14.556200981140137 3.734401226043701 1.667380928993225
H 0.5662753582000732 -1.4715675115585327 0.8219363689422607
H 0.39850544929504395 0.4867556691169739 -1.8948850631713867
H 0.8655890822410583 1.8512135744094849 1.128771185874939
H 4.703925132751465 -1.6302289962768555 -1.6288115978240967
H 5.225640773773193 3.0649845600128174 1.7571806907653809
H 9.122464179992676 -0.38412463665008545 -1.0006288290023804
H 9.75368881225586 4.334540367126465 2.406585216522217
H 13.461369514465332 0.7223666906356812 -0.46851980686187744
