17
Generated by QM7 dataset
C 1.7981878519058228 -0.18451285362243652 -0.19800549745559692
C 4.6405439376831055 0.06375935673713684 0.21025092899799347
N 6.023256301879883 -1.3229405879974365 -1.7849974632263184
C 5.558213710784912 2.8420724868774414 0.21525870263576508
C 4.581867694854736 4.367837429046631 2.446118116378784
O 8.26362133026123 2.845398426055908 0.3211967647075653
H 0.7443064451217651 0.6734606027603149 1.3602060079574585
H 1.2355785369873047 -2.1749236583709717 -0.29387131333351135
H 1.2032830715179443 0.7308893799781799 -1.956679105758667
H 5.156363487243652 -0.8202922940254211 2.0125772953033447
H 5.460628032684326 -0.6780904531478882 -3.5157408714294434
H 5.498290538787842 -3.1796910762786865 -1.7338048219680786
H 5.0175628662109375 3.781285285949707 -1.5504635572433472
H 5.111936092376709 3.478078842163086 4.238976955413818
H 2.5271496772766113 4.580733776092529 2.392374277114868
H 5.429050922393799 6.257110118865967 2.451277256011963
H 8.756745338439941 1.3307828903198242 -0.6267087459564209
