13
Generated by QM7 dataset
N 2.2498512268066406 0.2984822392463684 0.8326889276504517
C 4.6118388175964355 0.3710288405418396 0.2595538794994354
N 6.259207725524902 2.306013822555542 0.7191163897514343
C 5.2135844230651855 4.834920883178711 0.9284035563468933
C 7.219169616699219 5.682292938232422 -0.9824497103691101
O 7.865058898925781 7.672061443328857 -1.9156720638275146
C 8.049836158752441 2.920949697494507 -1.25687575340271
H 1.4969654083251953 -1.4084317684173584 0.3019026517868042
H 5.520305633544922 -1.27091646194458 -0.658134937286377
H 5.444357872009277 5.6189117431640625 2.8221170902252197
H 3.2810370922088623 5.064957141876221 0.23965506255626678
H 7.620755195617676 2.099353551864624 -3.1022121906280518
H 9.997520446777344 2.546689510345459 -0.6915074586868286
