16
Generated by QM7 dataset
C 3.0540618896484375 4.600292682647705 -2.419529676437378
O 5.627547740936279 4.546794414520264 -1.6132214069366455
C 6.470365524291992 2.215155839920044 -0.920636773109436
O 5.154397964477539 0.3105008900165558 -1.0008745193481445
N 8.965559959411621 2.2422356605529785 -0.1324320137500763
C 10.216955184936523 -0.1332823783159256 0.41179022192955017
C 10.552117347717285 4.477422714233398 -0.2806243300437927
H 2.61970853805542 6.523334503173828 -3.041344165802002
H 1.7988492250442505 4.121927261352539 -0.8467673659324646
H 2.7551639080047607 3.319096088409424 -4.0161213874816895
H 8.867842674255371 -1.6776988506317139 0.6550735831260681
H 11.318817138671875 0.06604592502117157 2.1495823860168457
H 11.481182098388672 -0.5901236534118652 -1.159592628479004
H 9.444151878356934 6.2199201583862305 -0.2893926501274109
H 11.664863586425781 4.378023147583008 -2.0204575061798096
H 11.82155990600586 4.518599510192871 1.3504360914230347
