14
Generated by QM7 dataset
N 3.1718485355377197 -1.1094393730163574 0.09046118706464767
C 5.707728862762451 -0.7065874934196472 0.0683513954281807
O 7.2292985916137695 -2.415712594985962 0.3667769432067871
C 6.41873836517334 1.9690568447113037 -0.32331323623657227
C 8.811528205871582 2.7172372341156006 0.06990096718072891
C 9.804862976074219 5.341046333312988 -0.23821887373924255
O 8.032242774963379 6.90609884262085 -1.5008015632629395
H 1.8769515752792358 0.288258820772171 0.0013039109762758017
H 2.5741660594940186 -2.8906006813049316 0.43577083945274353
H 4.963139057159424 3.2833423614501953 -0.9071252346038818
H 10.196565628051758 1.3315010070800781 0.7041308283805847
H 11.5610990524292 5.325267314910889 -1.3306317329406738
H 10.204143524169922 6.164229869842529 1.6155835390090942
H 8.037383079528809 6.3781280517578125 -3.2611002922058105
