16
Generated by QM7 dataset
C 2.1108052730560303 -0.03186078369617462 0.36545413732528687
N 4.726734161376953 0.016591794788837433 -0.40523287653923035
C 6.231296539306641 2.2755327224731445 -0.25088003277778625
C 8.650428771972656 1.5329080820083618 -1.5918296575546265
C 8.907904624938965 -1.2819145917892456 -1.0327919721603394
C 6.205974102020264 -2.131554365158081 -0.6824179291725159
O 5.504375457763672 -4.321577072143555 -0.5638564825057983
H 1.3110730648040771 -1.9191681146621704 0.10584355890750885
H 1.0536167621612549 1.3304805755615234 -0.7724066376686096
H 1.9931508302688599 0.4850171208381653 2.363064765930176
H 6.56636381149292 2.7114546298980713 1.7446707487106323
H 5.272581577301025 3.8579325675964355 -1.1706286668777466
H 8.435264587402344 1.8118505477905273 -3.635114908218384
H 10.286346435546875 2.6316704750061035 -0.9699586033821106
H 9.80471134185791 -2.2913873195648193 -2.5950286388397217
H 9.944154739379883 -1.6118419170379639 0.7260894775390625
