10
Generated by QM7 dataset
C 2.7890467643737793 -0.7580258250236511 1.7523808479309082
O 5.358016014099121 -0.45512163639068604 0.9927298426628113
C 6.104231357574463 1.9952296018600464 0.8412871956825256
O 4.810241222381592 3.8552114963531494 1.2828783988952637
C 8.707366943359375 2.230368137359619 0.06946633011102676
C 10.87648868560791 2.4302823543548584 -0.5735318660736084
H 2.374176263809204 -2.781431198120117 1.8169528245925903
H 1.5169587135314941 0.12598803639411926 0.38153570890426636
H 2.4923598766326904 0.030046645551919937 3.6417667865753174
H 12.798321723937988 2.6142659187316895 -1.1430386304855347
