13
Generated by QM7 dataset
C 1.0617992877960205 2.336703062057495 1.262582778930664
C -1.6148465871810913 1.4384406805038452 0.8205757737159729
C -1.5648633241653442 0.013417055830359459 -1.6248810291290283
O 1.059323787689209 0.019615357741713524 -2.4848763942718506
C 2.301875352859497 0.005272335838526487 -0.020390145480632782
O 1.0879720449447632 -2.062636137008667 1.349982500076294
C -1.5438306331634521 -1.384092092514038 0.8730157017707825
H 1.4505727291107178 4.105014324188232 0.2673584520816803
H 1.4974567890167236 2.470552444458008 3.2776920795440674
H -3.1971898078918457 2.5369763374328613 1.438383936882019
H -3.159376382827759 -0.07804568856954575 -2.884723663330078
H 4.35925817489624 -0.11017103493213654 -0.09841693937778473
H -3.1221866607666016 -2.5113327503204346 1.4863073825836182
