17
Generated by QM7 dataset
C 1.3746623992919922 1.7896840572357178 -0.8173443675041199
N 4.08133602142334 1.9161444902420044 -0.3683265149593353
C 5.292461395263672 -0.4075383245944977 0.4824092984199524
C 6.090625286102295 -1.8922584056854248 -1.7955988645553589
C 5.30325174331665 -4.2355756759643555 -2.3444321155548096
C 5.41138219833374 4.131470680236816 -0.47594642639160156
N 4.603202819824219 6.368773937225342 -0.9715459942817688
H 0.864020586013794 2.8140478134155273 -2.5415871143341064
H 0.35052528977394104 2.619765043258667 0.7775467038154602
H 0.7171699404716492 -0.15909604728221893 -1.0551097393035889
H 4.003819465637207 -1.4974000453948975 1.6858813762664795
H 6.959048748016357 0.0049510826356709 1.642757773399353
H 7.417590618133545 -0.9676342606544495 -3.0647389888763428
H 3.983750581741333 -5.245955467224121 -1.1421693563461304
H 5.972214698791504 -5.193874359130859 -4.0316362380981445
H 7.443990230560303 3.893610715866089 -0.07267886400222778
H 2.7061822414398193 6.324762344360352 -1.3033819198608398
