17
Generated by QM7 dataset
C 1.9004597663879395 0.057372085750103 -0.1846262365579605
C 4.746387481689453 -0.08269441872835159 0.14857026934623718
C 5.802933216094971 1.9956263303756714 1.823453426361084
O 8.207496643066406 1.103600025177002 2.7062578201293945
C 8.006070137023926 -1.5086817741394043 2.704935073852539
C 9.825159072875977 -2.9513931274414062 3.692014694213867
C 5.6348419189453125 -2.449104070663452 1.4938095808029175
H 1.2249771356582642 -1.502105474472046 -1.3643444776535034
H 1.3569366931915283 1.8353397846221924 -1.0916380882263184
H 0.9201643466949463 -0.052080851048231125 1.635576844215393
H 5.6586713790893555 0.017650041729211807 -1.7136036157608032
H 4.602031230926514 2.377558946609497 3.469329357147217
H 6.07151985168457 3.7629549503326416 0.782573401927948
H 9.68592357635498 -4.995245456695557 3.697967290878296
H 11.489535331726074 -2.096726655960083 4.5319414138793945
H 5.976485729217529 -3.996619701385498 0.1652187556028366
H 4.292664051055908 -3.0725812911987305 2.940697431564331
