17
Generated by QM7 dataset
C 1.523931860923767 -2.201587677001953 1.0629520416259766
C -0.7511850595474243 -2.8167502880096436 -0.6164664626121521
C -2.927072286605835 -0.997151792049408 -0.3694603443145752
C -2.7606821060180664 1.443127155303955 0.30891352891921997
C -0.350789874792099 2.9011075496673584 0.7246344089508057
C 1.8999305963516235 1.9494603872299194 -0.8260937929153442
O 3.127326726913452 -0.23933380842208862 0.15165051817893982
H 2.714686155319214 -3.8896234035491943 1.203490972518921
H 0.9383057355880737 -1.7469573020935059 2.997804880142212
H -1.4589442014694214 -4.682420253753662 -0.051816292107105255
H -0.19384810328483582 -2.9416799545288086 -2.607708692550659
H -4.794386386871338 -1.7881344556808472 -0.7148644924163818
H -4.501913547515869 2.518419027328491 0.5187864899635315
H 0.09185958653688431 2.9208929538726807 2.747737407684326
H -0.723349392414093 4.858920574188232 0.15149934589862823
H 3.3413949012756348 3.4351441860198975 -0.8765116930007935
H 1.3675758838653564 1.5955713987350464 -2.79730486869812
