15
Generated by QM7 dataset
O 1.4889719486236572 0.20870135724544525 -0.26452386379241943
C 4.094639778137207 0.013303671963512897 0.47443464398384094
C 5.75191068649292 -1.7100887298583984 -1.072022795677185
C 4.914175987243652 -2.7134199142456055 -3.5778939723968506
C 5.270389556884766 -0.4892311990261078 -5.3842453956604
O 5.148067474365234 1.7685002088546753 -3.8595011234283447
C 5.991281986236572 1.0943782329559326 -1.3362064361572266
H 1.2770013809204102 1.606550693511963 -1.4510451555252075
H 4.510908603668213 0.16419830918312073 2.4748988151550293
H 7.2554144859313965 -2.757450580596924 -0.1795428842306137
H 6.017700672149658 -4.3544769287109375 -4.189673900604248
H 2.9245779514312744 -3.2872731685638428 -3.504931688308716
H 7.136607646942139 -0.5475670695304871 -6.273475170135498
H 3.822896957397461 -0.42813634872436523 -6.853791236877441
H 7.651142120361328 2.0190021991729736 -0.5803537964820862
