15
Generated by QM7 dataset
C 1.582740068435669 -0.988364577293396 -0.3154708743095398
C 4.4104509353637695 -0.46749934554100037 -0.45077526569366455
C 5.597123146057129 -1.8025152683258057 -2.7070515155792236
O 4.821296215057373 2.1892855167388916 -0.7711027264595032
N 4.862983226776123 3.3576276302337646 1.6094986200332642
C 5.2778730392456055 5.73975944519043 1.2942167520523071
H 0.7383348941802979 -0.020541323348879814 1.307766079902649
H 1.200505256652832 -3.0131871700286865 -0.13870589435100555
H 0.6147090196609497 -0.2741047739982605 -2.0011065006256104
H 5.343314170837402 -1.129319190979004 1.2786831855773926
H 4.764018535614014 -1.1446070671081543 -4.4850568771362305
H 5.357676029205322 -3.853227138519287 -2.5801753997802734
H 7.621246814727783 -1.380501627922058 -2.808605432510376
H 5.386362075805664 7.000736236572266 2.9440231323242188
H 5.538938522338867 6.606501579284668 -0.5822057127952576
