15
Generated by QM7 dataset
O 7.195113182067871 -2.3239662647247314 1.7035691738128662
C 5.449044227600098 -0.7860127091407776 0.3415868878364563
C 6.2312397956848145 1.998328685760498 0.3965212404727936
C 6.378600597381592 3.0830881595611572 3.030686140060425
C 5.4580583572387695 5.3490777015686035 3.686232089996338
C 8.789361953735352 2.3012328147888184 -0.8502822518348694
O 9.246070861816406 3.9286084175109863 -2.446439504623413
H 6.519895076751709 -4.036663055419922 1.7056289911270142
H 3.5763633251190186 -1.0308456420898438 1.1889022588729858
H 5.386399745941162 -1.4825090169906616 -1.607174277305603
H 4.861301422119141 3.069009780883789 -0.7338940501213074
H 7.303432464599609 1.9323583841323853 4.464704990386963
H 4.551821231842041 6.584580421447754 2.3225300312042236
H 5.631837368011475 6.034727096557617 5.613072395324707
H 10.295832633972168 1.0167481899261475 -0.19097572565078735
