15
Generated by QM7 dataset
C 4.56448221206665 -0.1298052817583084 2.179912567138672
O 6.898653030395508 0.3466324508190155 0.9230367541313171
C 7.16671085357666 2.8344569206237793 0.2540358901023865
C 9.4310941696167 3.945615768432617 0.016421720385551453
C 11.926931381225586 2.7080154418945312 0.4738299250602722
C 9.462746620178223 6.6381731033325195 -0.7636950016021729
O 11.423149108886719 7.844385623931885 -1.0168994665145874
H 4.525988578796387 -2.1223702430725098 2.7282919883728027
H 2.962277889251709 0.227674201130867 0.9195218682289124
H 4.406482219696045 1.0209811925888062 3.893346071243286
H 5.393561840057373 3.7874081134796143 -0.11559455096721649
H 11.731703758239746 0.7250690460205078 1.0289937257766724
H 12.947136878967285 3.680959701538086 1.9887288808822632
H 13.086372375488281 2.7640457153320312 -1.238961100578308
H 7.603067398071289 7.514987468719482 -1.1058865785598755
