16
Generated by QM7 dataset
C 1.8666903972625732 0.019690945744514465 0.2697017192840576
C 4.762109756469727 0.0 0.0
C 5.913463115692139 -1.4124380350112915 2.2663486003875732
C 5.436250686645508 -1.4468499422073364 -2.4050354957580566
C 6.717144966125488 -0.6211152076721191 -4.431936740875244
C 5.672995567321777 2.5722384452819824 0.0
N 6.399047374725342 4.622572422027588 0.0
H 0.9640249013900757 1.001082420349121 -1.3184808492660522
H 1.2772281169891357 0.9909346103668213 2.0038466453552246
H 1.093811273574829 -1.9019337892532349 0.3388845920562744
H 5.437705993652344 -0.48097309470176697 4.05637264251709
H 7.982335567474365 -1.483170509338379 2.144083261489868
H 5.225867748260498 -3.364222764968872 2.3782958984375
H 4.780534744262695 -3.40124249458313 -2.4583070278167725
H 7.45806884765625 1.2879239320755005 -4.586592197418213
H 7.063116073608398 -1.8691658973693848 -6.026374340057373
