17
Generated by QM7 dataset
C -3.209737539291382 1.2401328086853027 0.6436974406242371
C -3.1411404609680176 -1.399398922920227 -0.7087228894233704
C -0.3660021722316742 -1.488726258277893 0.23043321073055267
C 2.197033405303955 -1.9594380855560303 -0.9088448882102966
O 3.7738587856292725 0.020768091082572937 0.12443846464157104
C 2.0960464477539062 1.9533343315124512 1.0838901996612549
C -0.3972960114479065 1.41090726852417 -0.16965961456298828
H -4.479690074920654 2.631141185760498 -0.20280541479587555
H -3.5248305797576904 1.1722538471221924 2.689382553100586
H -3.3659989833831787 -1.3389654159545898 -2.7661244869232178
H -4.407181262969971 -2.826463460922241 0.0809180736541748
H -0.3214046061038971 -2.1014511585235596 2.2254927158355713
H 2.9846901893615723 -3.793814182281494 -0.3767924904823303
H 2.2054994106292725 -1.7971673011779785 -2.972803831100464
H 2.015657424926758 1.7907044887542725 3.145524740219116
H 2.853996753692627 3.810330390930176 0.5862119197845459
H -0.2823061943054199 2.0252950191497803 -2.161072015762329
