15
Generated by QM7 dataset
C 1.8091481924057007 -0.05939409136772156 0.195756733417511
C 4.651088237762451 -0.24753522872924805 0.05321468785405159
N 5.601091384887695 -2.6577486991882324 -0.2790180742740631
C 6.069006443023682 1.8540291786193848 0.2747472822666168
C 8.86355209350586 1.8475096225738525 0.07485204935073853
N 9.967700958251953 4.046716213226318 0.8184025883674622
O 10.10823917388916 0.060187775641679764 -0.7034883499145508
H 1.1615957021713257 1.8817325830459595 0.5051993727684021
H 1.093017578125 -1.217115879058838 1.754799723625183
H 0.9573919773101807 -0.7336105704307556 -1.5658459663391113
H 4.560079097747803 -3.7579283714294434 -1.4599268436431885
H 7.481047630310059 -2.646580457687378 -0.7695909738540649
H 5.181818008422852 3.674912691116333 0.5678437948226929
H 9.014220237731934 5.513956069946289 1.5747654438018799
H 11.876985549926758 4.120736598968506 0.7748821973800659
