19
Generated by QM7 dataset
C 1.8122284412384033 3.268923759460449 2.428165912628174
C 4.6197190284729 2.968646287918091 2.3528034687042236
C 5.930130481719971 2.5445351600646973 0.22474512457847595
C 8.721123695373535 2.2490763664245605 0.17515870928764343
C 10.348593711853027 4.300563335418701 1.4873089790344238
C 12.192645072937012 2.160637378692627 2.220503807067871
C 9.935310363769531 0.32183924317359924 2.0162243843078613
H 1.3237909078598022 5.126165390014648 3.195073366165161
H 0.9826576113700867 1.8214881420135498 3.649949312210083
H 0.9551053643226624 3.099207639694214 0.5531984567642212
H 5.579095363616943 3.1150245666503906 4.1637468338012695
H 4.9558634757995605 2.400556802749634 -1.5786771774291992
H 9.352632522583008 1.923797845840454 -1.7794227600097656
H 9.489259719848633 5.232954025268555 3.124680995941162
H 11.132925033569336 5.750039577484131 0.24007080495357513
H 13.675191879272461 1.8197684288024902 0.8147554397583008
H 13.057119369506836 2.3191285133361816 4.089065074920654
H 10.377147674560547 -1.5282782316207886 1.207686185836792
H 8.94932746887207 0.038153570145368576 3.8151113986968994
