17
Generated by QM7 dataset
C 0.7941195964813232 2.7126641273498535 1.450497031211853
C 2.60910701751709 0.8931790590286255 0.030632460489869118
C 0.7837828397750854 -0.6913185119628906 -1.6005979776382446
C -1.1970281600952148 1.2962576150894165 -2.3107571601867676
C -1.826117992401123 1.9211711883544922 0.44416123628616333
C -2.3636882305145264 -0.7192108631134033 1.392784833908081
C -0.796387255191803 -2.2892141342163086 0.16344241797924042
H 1.220933198928833 4.675107002258301 0.9456945657730103
H 0.958261251449585 2.512693166732788 3.5040814876556396
H 3.7186408042907715 -0.26114124059677124 1.3421969413757324
H 3.9146244525909424 1.977522850036621 -1.155624270439148
H 1.626638412475586 -1.7086148262023926 -3.181713104248047
H -0.40859657526016235 2.9011831283569336 -3.355473279953003
H -2.8027851581573486 0.5206573605537415 -3.3691928386688232
H -3.3533568382263184 3.276331663131714 0.7201179265975952
H -3.687025785446167 -1.2164545059204102 2.8625192642211914
H -0.6081705689430237 -4.299807071685791 0.4478462040424347
