13
Generated by QM7 dataset
N 1.8100742101669312 1.8897260815720074e-05 0.0784047394990921
C 4.338301181793213 -0.020106686279177666 0.034959934651851654
C 5.833565711975098 2.1078383922576904 0.011357254348695278
O 5.200507640838623 4.539594650268555 0.013946179300546646
N 8.299110412597656 1.2917600870132446 -0.018651597201824188
C 8.365212440490723 -1.3036086559295654 -0.023149145767092705
C 5.907680511474609 -2.1677236557006836 0.00784236378967762
H 0.8552144765853882 1.6617873907089233 -0.03165291249752045
H 0.7398656010627747 -1.5790362358093262 -0.06848367303609848
H 6.718543529510498 5.56807804107666 0.012132042087614536
H 9.84118366241455 2.414937734603882 -0.03526229038834572
H 10.146090507507324 -2.305541515350342 -0.04495658352971077
H 5.32963228225708 -4.127294063568115 0.016497308388352394
