15
Generated by QM7 dataset
C 1.9337189197540283 -0.09401387721300125 -0.05094701796770096
N 4.689393043518066 -0.02437746711075306 -0.044559743255376816
C 5.60209321975708 2.595198631286621 -0.07702523469924927
C 8.479767799377441 2.627758741378784 0.024604234844446182
C 9.508194923400879 5.281482219696045 -0.00024566438514739275
O 8.220100402832031 7.195850372314453 -0.22714507579803467
H 1.297561526298523 -2.0604629516601562 -0.01171630248427391
H 1.1586477756500244 0.7930235862731934 -1.7509068250656128
H 1.157325029373169 0.845482349395752 1.6197787523269653
H 5.337191104888916 -0.9508724212646484 -1.6059648990631104
H 4.846297264099121 3.6289923191070557 1.554129719734192
H 4.94416618347168 3.5596392154693604 -1.7906099557876587
H 9.289591789245605 1.6288871765136719 -1.598311424255371
H 9.158935546875 1.7122997045516968 1.7541004419326782
H 11.582547187805176 5.422304630279541 0.16922497749328613
