11
Generated by QM7 dataset
C 5.304385662078857 -2.1530215740203857 1.292251467704773
C 4.3226728439331055 0.09339026361703873 0.6493666172027588
C 5.737284183502197 2.363178014755249 0.0
C 4.4967546463012695 4.495337009429932 -0.6100791692733765
C 8.39423942565918 2.363178014755249 0.0
N 10.56933307647705 2.363178014755249 0.0
H 4.07088565826416 -3.730168104171753 1.743442416191101
H 7.322915554046631 -2.5078744888305664 1.3939753770828247
H 2.2713563442230225 0.24904701113700867 0.6046556830406189
H 2.4480645656585693 4.597647190093994 -0.639407753944397
H 5.5046586990356445 6.2172932624816895 -1.1027307510375977
