16
Generated by QM7 dataset
C 5.672296524047852 -3.1425390243530273 1.9396716356277466
C 4.649293422698975 -0.8716740012168884 0.5661997199058533
O 2.4284491539001465 -0.7153369188308716 -0.09374931454658508
N 6.306394100189209 1.0546183586120605 0.06597033888101578
C 8.90299129486084 1.1625784635543823 0.7636005282402039
C 10.894403457641602 -0.138214573264122 -0.7895842790603638
C 10.732566833496094 2.690913438796997 -0.7868630886077881
H 7.1649346351623535 -4.035737037658691 0.8273599147796631
H 4.152106285095215 -4.5164642333984375 2.2141165733337402
H 6.394228458404541 -2.587507486343384 3.7931339740753174
H 5.516186237335205 2.5462357997894287 -0.839737594127655
H 9.185543060302734 1.2231630086898804 2.7990434169769287
H 10.31794261932373 -1.1278263330459595 -2.488070011138916
H 12.458908081054688 -1.0139892101287842 0.20027317106723785
H 12.189791679382324 3.7344956398010254 0.20471403002738953
H 10.060996055603027 3.606466770172119 -2.4911692142486572
