9
Generated by QM7 dataset
N 1.7095407247543335 -0.01744217239320278 -0.0014550890773534775
C 3.902416706085205 0.07317019253969193 -7.55890432628803e-05
C 6.616006851196289 0.07747877389192581 0.0015684727113693953
N 7.797161102294922 2.301837682723999 0.003873938461765647
S 10.892022132873535 1.7883801460266113 0.005366822239011526
C 10.6954345703125 -1.4415209293365479 0.002910178154706955
C 8.179283142089844 -2.1223514080047607 0.000907068548258394
H 12.360169410705566 -2.62549090385437 0.0030424590222537518
H 7.506899356842041 -4.0539727210998535 -0.0008881712565198541
