15
Generated by QM7 dataset
C 1.913328766822815 -0.04427628219127655 -0.024585336446762085
N 4.659214496612549 0.022582227364182472 0.08959191292524338
C 5.594912052154541 2.618555784225464 0.0
C 8.323677062988281 2.618555784225464 0.0
C 10.572752952575684 2.618555784225464 0.0
C 13.301517486572266 2.618555784225464 0.0
H 1.2678550481796265 -2.007342576980591 0.05877048149704933
H 1.203736662864685 0.7828757166862488 -1.7834668159484863
H 1.0722683668136597 0.9546518325805664 1.580302357673645
H 5.390859603881836 -0.9454866647720337 -1.4062963724136353
H 4.897376537322998 3.6751205921173096 1.6393184661865234
H 4.9009480476379395 3.574171304702759 -1.702510952949524
H 14.046239852905273 4.547663688659668 -0.022279871627688408
H 14.046107292175293 1.6346509456634521 -1.6595386266708374
H 14.046126365661621 1.673220157623291 1.6817995309829712
