18
Generated by QM7 dataset
C -1.6913237571716309 -0.02681521326303482 -2.1062886714935303
C -1.123650074005127 2.0074939727783203 -0.06848367303609848
C -2.198072671890259 -0.015552446246147156 1.7525131702423096
N -1.2611275911331177 -1.966902494430542 -0.07640162855386734
C 1.4851735830307007 -2.3277080059051514 0.3476529121398926
C 3.124227523803711 0.01955866627395153 -0.15059228241443634
C 1.6879411935806274 2.4613115787506104 0.4040234386920929
H -3.6444313526153564 -0.0034015069250017405 -2.8061487674713135
H -0.44491711258888245 -0.11591579765081406 -3.7552638053894043
H -2.2255494594573975 3.7526748180389404 -0.18740414083003998
H -1.403896450996399 -0.08312905579805374 3.6625537872314453
H -4.264677047729492 0.010563569143414497 1.9306198358535767
H 1.780896782875061 -2.9821391105651855 2.293447256088257
H 2.1412487030029297 -3.8693466186523438 -0.8712771534919739
H 3.6782386302948 0.02260112389922142 -2.1494688987731934
H 4.882938861846924 -0.06039564684033394 0.9370396137237549
H 2.397892475128174 3.9812371730804443 -0.809634268283844
H 1.9914122819900513 3.0533628463745117 2.3659749031066895
