11
Generated by QM7 dataset
O -2.189115524291992 1.3385875225067139 1.379518985748291
C -2.0087411403656006 -0.7907559275627136 -0.295383095741272
C -0.24016529321670532 -2.7674851417541504 0.48439350724220276
N 2.1859219074249268 -2.4469308853149414 0.5000026226043701
N 3.2781457901000977 -0.10503097623586655 -0.12610141932964325
C 1.900497555732727 1.8210535049438477 -0.7424545288085938
C -0.8525877594947815 1.687242031097412 -0.9581478238105774
H -3.700253963470459 -1.380482792854309 -1.277757167816162
H -1.029787302017212 -4.6106672286987305 1.0403320789337158
H 2.818866729736328 3.6391968727111816 -1.166395664215088
H -1.7365260124206543 2.829845905303955 -2.4031646251678467
