15
Generated by QM7 dataset
C 1.889726161956787 0.0 0.0
C 4.618490695953369 0.0 0.0
C 6.86756706237793 0.0 0.0
C 9.596331596374512 0.0 0.0
C 10.616254806518555 -1.4445255994796753 -2.2786507606506348
C 10.507217407226562 2.5722384452819824 0.0
C 11.257967948913574 4.692322254180908 0.0
H 1.145230770111084 1.9292025566101074 0.02201530896127224
H 1.145060658454895 -0.9836591482162476 1.6596330404281616
H 1.1452118158340454 -0.9454299807548523 -1.6817806959152222
H 10.272192001342773 -0.9564470648765564 1.7113360166549683
H 10.009255409240723 -0.5891410112380981 -4.070318698883057
H 9.954699516296387 -3.408555746078491 -2.272301197052002
H 12.688566207885742 -1.4745721817016602 -2.27498459815979
H 11.919334411621094 6.594274997711182 -0.0003023561730515212
