17
Generated by QM7 dataset
C 1.8561835289001465 0.01704533025622368 0.012491089291870594
C 4.762109756469727 0.0 0.0
C 5.713832855224609 -1.3682184219360352 2.382150888442993
C 5.676605224609375 -1.3932762145996094 -2.4037694931030273
O 8.348469734191895 -1.764040470123291 -2.439145088195801
C 5.672995567321777 2.5722384452819824 0.0
C 6.423746109008789 4.692322254180908 0.0
H 1.0983465909957886 0.9741916060447693 -1.66371488571167
H 1.1107999086380005 1.0077909231185913 1.6745808124542236
H 1.0932821035385132 -1.9093414545059204 0.03601818159222603
H 5.000649929046631 -0.46167898178100586 4.103124618530273
H 7.781155109405518 -1.3540265560150146 2.5015437602996826
H 5.090430736541748 -3.3419618606567383 2.4056780338287354
H 5.157894134521484 -0.35950151085853577 -4.1239495277404785
H 4.810997009277344 -3.2709269523620605 -2.5253355503082275
H 9.125279426574707 -0.10087358206510544 -2.308300495147705
H 7.08870267868042 6.594048023223877 0.01024231594055891
