15
Generated by QM7 dataset
C 2.1959941387176514 -0.2098918855190277 -1.1112534999847412
C 4.651579856872559 0.03322138637304306 -0.5502315759658813
C 6.019665718078613 2.3789384365081787 -0.5460741519927979
C 8.45699691772461 2.6843371391296387 -0.010676953010261059
C 9.113147735595703 5.3827338218688965 -0.3186078369617462
C 6.504116058349609 6.55888032913208 -0.6470611095428467
O 4.733442783355713 4.570038318634033 -1.216378927230835
H 1.2893601655960083 -2.0472159385681152 -1.0745171308517456
H 1.0399162769317627 1.4083939790725708 -1.6192495822906494
H 5.716723918914795 -1.6529057025909424 -0.05548235774040222
H 9.771622657775879 1.2117490768432617 0.5000026226043701
H 10.096315383911133 6.167461395263672 1.3205595016479492
H 10.28908634185791 5.660712242126465 -1.9976483583450317
H 6.476715087890625 7.952723503112793 -2.1759629249572754
H 5.880865573883057 7.496297836303711 1.0931499004364014
