14
Generated by QM7 dataset
O 6.161716461181641 7.1039719581604 -2.9494845867156982
C 4.774412155151367 6.078398704528809 -1.402214527130127
C 5.503052711486816 3.7878992557525635 0.13388709723949432
C 8.204245567321777 2.869492530822754 -0.3432498574256897
C 10.282793998718262 4.678376197814941 0.5511953234672546
C 10.198531150817871 5.088956832885742 3.294624090194702
N 10.081178665161133 5.405334949493408 5.461289405822754
H 2.846475601196289 6.797401428222656 -1.0600229501724243
H 4.176086902618408 2.2827136516571045 -0.3788144886493683
H 5.197653770446777 4.230113983154297 2.130836248397827
H 8.4636869430542 2.522860050201416 -2.371020555496216
H 8.44450569152832 1.0408233404159546 0.6061674356460571
H 10.160697937011719 6.493779182434082 -0.4310465455055237
H 12.122045516967773 3.8655669689178467 0.050380099564790726
