16
Generated by QM7 dataset
C 3.3756556510925293 -1.2813477516174316 -1.929599404335022
C 5.433170318603516 -0.5011364817619324 -0.08122042566537857
C 5.624543190002441 2.3243441581726074 0.12286999076604843
C 7.704866886138916 3.646623373031616 -0.4847903549671173
C 7.9253034591674805 6.473634719848633 -0.278318852186203
C 8.53736686706543 7.598399639129639 -2.744222402572632
N 9.03735065460205 8.508454322814941 -4.679661273956299
H 3.2573776245117188 -3.343832492828369 -2.037767171859741
H 3.7662429809570312 -0.5618722438812256 -3.8306071758270264
H 1.5254247188568115 -0.566842257976532 -1.3375859260559082
H 7.2361016273498535 -1.3268523216247559 -0.6804714798927307
H 5.0065083503723145 -1.2752816677093506 1.7916682958602905
H 3.9514174461364746 3.2996697425842285 0.8181191086769104
H 9.373079299926758 2.650000810623169 -1.1651862859725952
H 9.419151306152344 6.9238810539245605 1.0831910371780396
H 6.17279052734375 7.303697109222412 0.44913122057914734
