17
Generated by QM7 dataset
C 1.8145149946212769 0.16310226917266846 -0.31227725744247437
C 4.597174644470215 0.10172395408153534 0.09715081751346588
N 6.181634426116943 -1.5350056886672974 -1.4375336170196533
C 6.391828536987305 1.2113144397735596 -1.8356044292449951
C 8.860132217407227 2.502432107925415 -1.1127463579177856
C 11.252771377563477 2.159938097000122 -2.629686117172241
N 9.84760856628418 4.520829677581787 -2.738572120666504
H 1.0255922079086304 1.9152185916900635 0.4537232518196106
H 0.9145140647888184 -1.424513339996338 0.6623678803443909
H 1.309731364250183 0.05723980441689491 -2.316898822784424
H 5.096572399139404 0.22963951528072357 2.0787744522094727
H 5.196538925170898 -2.3296544551849365 -2.894115686416626
H 5.5534138679504395 1.8777074813842773 -3.5934464931488037
H 9.122633934020996 2.812422752380371 0.9034024477005005
H 11.172967910766602 0.9715837836265564 -4.293684482574463
H 13.042265892028809 2.180328130722046 -1.6399232149124146
H 10.706262588500977 5.881848335266113 -1.6740138530731201
