12
Generated by QM7 dataset
O 2.5968804359436035 0.2689458131790161 1.2899270057678223
C 4.560079097747803 -0.1306178718805313 0.15535438060760498
N 5.4338507652282715 -2.3906924724578857 -0.7434938549995422
O 7.975419044494629 -2.265441417694092 -1.6132781505584717
C 8.720197677612305 0.35891568660736084 -1.3229783773422241
C 7.47243070602417 2.279538869857788 -2.995253801345825
C 6.469496250152588 1.8178220987319946 -0.36723047494888306
H 4.737430095672607 -4.0660481452941895 -0.15132926404476166
H 10.567102432250977 0.7716507911682129 -0.5469245314598083
H 8.464971542358398 4.036341667175293 -3.340676784515381
H 6.375690460205078 1.6117851734161377 -4.590900897979736
H 6.779373645782471 3.2288427352905273 1.0760101079940796
