20
Generated by QM7 dataset
C 1.7888903617858887 -0.03392058238387108 0.08284559100866318
C 4.653204917907715 -0.08928956091403961 0.04781007021665573
C 6.006154537200928 1.924138069152832 1.7003567218780518
C 8.034870147705078 -0.11185289174318314 2.322208881378174
C 10.432005882263184 0.10159167647361755 0.7403569221496582
C 5.940902233123779 -2.099693536758423 1.747221827507019
N 6.904926776885986 -4.163331031799316 0.19804330170154572
H 1.0191482305526733 -1.6628267765045166 -0.9344695806503296
H 1.0838335752487183 1.680193305015564 -0.8376966714859009
H 1.0456233024597168 -0.0750788226723671 2.0129928588867188
H 5.345808506011963 -0.04663844034075737 -1.9130076169967651
H 4.924116134643555 2.5343685150146484 3.360858917236328
H 6.664005756378174 3.6047470569610596 0.6937184929847717
H 8.569548606872559 -0.10720416158437729 4.328380107879639
H 10.023712158203125 0.21104460954666138 -1.2868279218673706
H 11.66890811920166 -1.5244042873382568 1.0657110214233398
H 11.486624717712402 1.8047640323638916 1.2598614692687988
H 4.859619617462158 -2.6910834312438965 3.4113903045654297
H 7.835050106048584 -3.6240034103393555 -1.3979626893997192
H 5.531644344329834 -5.382506847381592 -0.3880930542945862
