17
Generated by QM7 dataset
C 3.1798043251037598 -1.271823525428772 -1.7029078006744385
C 3.5899882316589355 0.8689149618148804 -0.4207097291946411
C 6.021914482116699 2.181443214416504 -0.21903815865516663
C 6.903264045715332 3.770646095275879 -2.4054512977600098
C 6.037845134735107 5.031735897064209 -0.007124267518520355
C 7.93497896194458 6.256335258483887 1.5991051197052002
C 8.117488861083984 6.020554065704346 4.111949443817139
H 1.3202193975448608 -2.1351637840270996 -1.7484501600265503
H 4.693777561187744 -2.202645778656006 -2.728783369064331
H 2.0033552646636963 1.707235336303711 0.5865709781646729
H 7.457123756408691 1.1392402648925781 0.8155491352081299
H 5.699414253234863 3.93837833404541 -4.05557918548584
H 8.903047561645508 3.735818386077881 -2.850632905960083
H 4.244003772735596 6.02595853805542 -0.08821241557598114
H 9.283884048461914 7.483882427215576 0.646040678024292
H 6.81777286529541 4.833182334899902 5.165528774261475
H 9.576678276062012 7.008011341094971 5.160218238830566
