21
Generated by QM7 dataset
C 14.67829704284668 0.5650092363357544 4.293854713439941
C 12.611011505126953 2.3296353816986084 3.3639960289001465
C 10.166972160339355 0.9007190465927124 2.8126115798950195
C 8.075328826904297 2.6759467124938965 1.9358165264129639
O 5.881659030914307 1.2025461196899414 1.3998146057128906
C 3.806173086166382 2.7471892833709717 0.6432816982269287
C 1.5990484952926636 1.042845368385315 -0.01602487824857235
H 16.416484832763672 1.6262415647506714 4.655094623565674
H 15.09685230255127 -0.8944451808929443 2.888862133026123
H 14.119089126586914 -0.36804306507110596 6.053775310516357
H 13.261039733886719 3.293811559677124 1.6497119665145874
H 12.268555641174316 3.787691354751587 4.7949724197387695
H 9.533668518066406 -0.1205834224820137 4.5028204917907715
H 10.494386672973633 -0.5475670695304871 1.3652704954147339
H 8.660085678100586 3.683265209197998 0.22389474511146545
H 7.640805244445801 4.055446624755859 3.4177775382995605
H 4.3366379737854 3.8791921138763428 -1.007110595703125
H 3.28201961517334 4.012115478515625 2.1953704357147217
H 2.110767364501953 -0.24585336446762085 -1.5505013465881348
H -0.04015668109059334 2.1560075283050537 -0.5980983376502991
H 1.0726652145385742 -0.1280856430530548 1.6050766706466675
