13
Generated by QM7 dataset
C 1.8515725135803223 0.023999521508812904 -0.01594928838312626
N 4.571153163909912 -0.08670063316822052 -0.0030991509556770325
C 6.136999130249023 1.9688489437103271 0.008636048063635826
N 8.526369094848633 1.2997536659240723 0.02050352841615677
C 8.497965812683105 -1.2926483154296875 0.01593039184808731
C 6.060880661010742 -2.2115843296051025 0.0006614041631110013
O 5.205099582672119 -4.573080539703369 -0.008862815797328949
H 1.232517123222351 1.9944169521331787 -0.0002267671370645985
H 1.149180293083191 -0.941253662109375 1.669440746307373
H 1.1671515703201294 -0.9094117879867554 -1.7263214588165283
H 5.449648857116699 3.8953113555908203 0.008125822059810162
H 10.23008918762207 -2.3785793781280518 0.023338118568062782
H 3.373595714569092 -4.588425159454346 -0.022582227364182472
