13
Generated by QM7 dataset
C 3.389866352081299 -1.2221237421035767 1.4706794023513794
O 5.797868728637695 -0.5784640908241272 0.4594491124153137
N 6.185678482055664 2.0207974910736084 0.8011872172355652
C 8.397356986999512 2.5964648723602295 -0.06511995941400528
C 9.339725494384766 5.263227462768555 0.01628943905234337
C 11.702658653259277 5.3706583976745605 1.4447523355484009
N 13.597505569458008 5.458795070648193 2.5434958934783936
H 3.0919888019561768 -3.2492518424987793 1.2081018686294556
H 1.8979464769363403 -0.19337567687034607 0.47454801201820374
H 3.3251242637634277 -0.7941573858261108 3.492875337600708
H 9.647921562194824 1.1613879203796387 -0.9261736869812012
H 7.908579349517822 6.493231296539307 0.8634536862373352
H 9.654685974121094 5.880940914154053 -1.9326984882354736
