14
Generated by QM7 dataset
C 6.487524509429932 -1.4107939004898071 -2.9389398097991943
S 5.664529800415039 -0.15081904828548431 0.06005549803376198
O 2.938864231109619 -0.3254297375679016 0.28958162665367126
O 7.291753768920898 -1.3327860832214355 1.9255363941192627
C 6.458894729614258 3.0112218856811523 -0.2742181718349457
C 8.864327430725098 3.7364609241485596 -0.010336802341043949
N 9.784189224243164 6.14767599105835 -0.2639380395412445
H 8.517166137695312 -1.193154215812683 -3.2369496822357178
H 5.419583320617676 -0.423317551612854 -4.402249336242676
H 5.993833541870117 -3.4150753021240234 -2.946668863296509
H 4.947416305541992 4.310710906982422 -0.712955892086029
H 10.345759391784668 2.374459743499756 0.43904006481170654
H 8.462495803833008 7.538174152374268 -0.1129678264260292
H 11.341607093811035 6.505438804626465 0.8126389384269714
