17
Generated by QM7 dataset
N 1.9032187461853027 -0.2608200013637543 -0.31318432092666626
C 4.656455039978027 -0.04907618835568428 -0.10847028344869614
C 5.62645149230957 2.707637310028076 0.0
C 4.568450927734375 4.10178279876709 2.344167470932007
N 5.290874004364014 6.786006450653076 2.4474411010742188
C 8.355216026306152 2.707637310028076 0.0
C 10.604292869567871 2.707637310028076 0.0
H 1.4216220378875732 -2.1183829307556152 -0.4983207881450653
H 1.3093723058700562 0.6080572009086609 -1.9295804500579834
H 5.500369071960449 -1.0215671062469482 -1.7340505123138428
H 5.266383171081543 -1.0818493366241455 1.5831936597824097
H 4.955769062042236 3.693413019180298 -1.6996574401855469
H 5.2253007888793945 3.178765058517456 4.080485820770264
H 2.500542402267456 4.02092170715332 2.349836587905884
H 7.21431303024292 6.916643142700195 2.4820985794067383
H 4.671629905700684 7.534073352813721 4.111703872680664
H 12.618570327758789 2.712437391281128 -0.007502212654799223
