12
Generated by QM7 dataset
C 6.208676338195801 -1.950216293334961 0.9903676509857178
O 4.574913501739502 0.12449515610933304 0.4914988577365875
C 5.683464527130127 2.3697731494903564 0.25773975253105164
C 4.7987518310546875 4.7658891677856445 -0.21181939542293549
N 6.774611473083496 6.44903039932251 -0.26524195075035095
C 8.752700805664062 5.012914180755615 0.1702643185853958
O 8.251338005065918 2.511597156524658 0.5087709426879883
H 5.049858570098877 -3.655939817428589 1.1342514753341675
H 7.201557159423828 -1.6962559223175049 2.788990020751953
H 7.557581901550293 -2.2203903198242188 -0.5565243363380432
H 2.8660531044006348 5.351439952850342 -0.5092244744300842
H 10.714066505432129 5.574068546295166 0.2910745143890381
