17
Generated by QM7 dataset
C 1.8449585437774658 -0.3896237313747406 0.16395263373851776
C 4.711994171142578 -0.20116133987903595 0.11268436908721924
C 5.588203430175781 2.545574426651001 -0.0742473378777504
C 8.420525550842285 2.7179174423217773 -0.11124818027019501
C 9.750401496887207 3.660097122192383 -2.049748182296753
C 12.431053161621094 3.774009943008423 -1.979960560798645
C 14.696815490722656 3.868307113647461 -1.9291836023330688
H 1.2601449489593506 -2.3691117763519287 0.296819269657135
H 1.0185434818267822 0.40952256321907043 -1.555830478668213
H 1.0645582675933838 0.6212096810340881 1.7913092374801636
H 5.433000564575195 -1.2872625589370728 -1.4987984895706177
H 5.477824687957764 -1.0779942274093628 1.827667474746704
H 4.8862080574035645 3.6203372478485107 1.552504539489746
H 4.777624607086182 3.4227664470672607 -1.7684624195098877
H 9.403352737426758 2.0364067554473877 1.562916874885559
H 8.809903144836426 4.357254981994629 -3.735081434249878
H 16.707447052001953 3.948148012161255 -1.8816759586334229
