17
Generated by QM7 dataset
C 5.802611827850342 -1.766119122505188 2.590587854385376
C 6.68076753616333 -0.8007714748382568 0.03155842795968056
C 6.702991008758545 2.0389578342437744 -0.05580361187458038
C 8.746275901794434 3.544294834136963 0.11189068108797073
C 11.430632591247559 2.749570369720459 0.514156699180603
C 8.313340187072754 6.32262659072876 -0.0843762755393982
O 10.034445762634277 7.865758419036865 0.02335701510310173
H 5.73896598815918 -3.8337440490722656 2.5899829864501953
H 3.9085395336151123 -1.0687724351882935 3.047863721847534
H 7.091631889343262 -1.1673972606658936 4.095149993896484
H 5.393524169921875 -1.4880081415176392 -1.4400469064712524
H 8.53377628326416 -1.600730299949646 -0.4176483750343323
H 4.838757038116455 2.877485990524292 -0.3121449649333954
H 11.625123023986816 0.7269965410232544 0.8840138912200928
H 12.237337112426758 3.733626365661621 2.1471824645996094
H 12.571856498718262 3.2016305923461914 -1.150899887084961
H 6.334116458892822 6.924296855926514 -0.342418372631073
