15
Generated by QM7 dataset
C 3.2172210216522217 -0.8776643872261047 2.1991121768951416
N 5.545798301696777 -0.6847233772277832 0.7437584400177002
C 6.380849361419678 1.9545059204101562 0.5744389295578003
C 8.779006004333496 2.066453218460083 -1.0106254816055298
C 11.248046875 1.7100509405136108 0.3602195978164673
O 8.699090003967285 2.3228325843811035 -3.3245952129364014
H 2.620124101638794 -2.855092763900757 2.281825304031372
H 1.6871474981307983 0.21454060077667236 1.33599853515625
H 3.499376058578491 -0.22999857366085052 4.143073558807373
H 5.2211432456970215 -1.3302916288375854 -1.0503853559494019
H 6.780734062194824 2.74580979347229 2.4447765350341797
H 4.953331470489502 3.145770311355591 -0.33701375126838684
H 11.434127807617188 3.142331123352051 1.8360012769699097
H 12.816633224487305 1.9238923788070679 -0.9676720499992371
H 11.319119453430176 -0.18016648292541504 1.187088131904602
