19
Generated by QM7 dataset
C 1.9718914031982422 0.006292787846177816 -0.2436046004295349
C 4.830990314483643 0.005574692040681839 0.054934337735176086
C 5.776004791259766 2.0470268726348877 1.8475096225738525
N 8.388531684875488 1.2903050184249878 2.3905792236328125
C 8.36878490447998 -1.4953969717025757 2.503187894821167
C 5.879580497741699 -2.3879902362823486 1.2819145917892456
N 6.1782708168029785 -4.482751846313477 -0.49110203981399536
H 1.3569934368133545 -1.5090596675872803 -1.5089462995529175
H 1.3237531185150146 1.8048396110534668 -1.0371195077896118
H 1.0220017433166504 -0.25936490297317505 1.577618956565857
H 5.69510555267334 0.29560986161231995 -1.8126252889633179
H 4.681985378265381 2.0969157218933105 3.603386402130127
H 5.704383850097656 3.9298555850982666 0.9913503527641296
H 9.494475364685059 1.8138347864151 0.897714376449585
H 10.04221248626709 -2.2410261631011963 1.533550500869751
H 8.468013763427734 -2.1253182888031006 4.473605155944824
H 4.6072468757629395 -3.0094077587127686 2.7962088584899902
H 7.396841526031494 -3.973564863204956 -1.8948472738265991
H 4.496735572814941 -4.842857837677002 -1.3555383682250977
