15
Generated by QM7 dataset
C 1.816650390625 -0.1054467186331749 0.42987489700317383
C 4.558945178985596 0.031256068497896194 -0.4192924201488495
O 4.76125955581665 2.0718767642974854 -2.1745078563690186
C 7.281927585601807 2.3210561275482178 -3.0801968574523926
C 8.279041290283203 -0.1814137101173401 -3.89328932762146
C 7.194849014282227 -2.3130059242248535 -3.0969398021698
O 5.197445869445801 -2.3944718837738037 -1.4588874578475952
H 1.2302495241165161 1.6574976444244385 1.338228464126587
H 1.5145587921142578 -1.6837459802627563 1.7317450046539307
H 0.5733618140220642 -0.40094318985939026 -1.200713038444519
H 5.765422344207764 0.40141561627388 1.2292290925979614
H 8.482810974121094 3.1544065475463867 -1.6143929958343506
H 7.235024452209473 3.62080979347229 -4.687692642211914
H 9.870758056640625 -0.23719842731952667 -5.182422637939453
H 7.766094207763672 -4.188786029815674 -3.675384998321533
