11
Generated by QM7 dataset
O 2.2050647735595703 -0.14630259573459625 -0.8470130562782288
C 4.408164024353027 -0.049378544092178345 -0.21227294206619263
N 5.98069953918457 -2.0420758724212646 0.30649468302726746
C 8.465538024902344 -1.261430025100708 1.0011013746261597
C 8.209782600402832 1.5337395668029785 0.8379801511764526
C 5.891561508178711 2.267822504043579 0.143392413854599
H 5.361398696899414 -3.844515562057495 0.1846262365579605
H 9.832585334777832 -2.0143158435821533 -0.35035523772239685
H 8.88706111907959 -1.9102674722671509 2.9150915145874023
H 9.74524211883545 2.816920280456543 1.2416634559631348
H 5.152546405792236 4.139369487762451 -0.13020212948322296
