18
Generated by QM7 dataset
C 1.54698646068573 0.09913503378629684 -0.05372491478919983
C 4.327680587768555 -0.15144264698028564 0.27514412999153137
C 5.949216842651367 -1.8873450756072998 -1.294594645500183
C 5.1382222175598145 -2.9549081325531006 -3.7823245525360107
C 5.6124677658081055 -0.7979557514190674 -5.612637996673584
C 5.383432865142822 1.588824987411499 -4.0126824378967285
N 6.209413528442383 0.9075220823287964 -1.4450546503067017
H 0.9368883967399597 1.9991223812103271 0.49629876017570496
H 0.5793900489807129 -1.2512822151184082 1.1813056468963623
H 0.8845618963241577 -0.2519760727882385 -1.9785054922103882
H 4.8207478523254395 0.021788543090224266 2.2604336738586426
H 7.517444133758545 -2.869152307510376 -0.42392227053642273
H 6.242124557495117 -4.625936031341553 -4.297879695892334
H 3.143918514251709 -3.5001697540283203 -3.7534308433532715
H 7.54061222076416 -0.9434835910797119 -6.3640875816345215
H 4.303379058837891 -0.8180813193321228 -7.213008880615234
H 6.619994163513184 3.0649468898773193 -4.770462512969971
H 3.462507486343384 2.3543341159820557 -4.053915977478027
