12
Generated by QM7 dataset
C 1.8480010032653809 0.1409168839454651 -0.29906806349754333
C 4.5626301765441895 0.5806939601898193 0.27452051639556885
O 6.249022006988525 -1.2465012073516846 -0.7937983870506287
C 6.402921199798584 1.2845979928970337 -1.7796306610107422
C 8.756404876708984 2.6274373531341553 -1.142622947692871
O 8.869354248046875 4.936097145080566 -1.2419657707214355
H 0.7863906621932983 1.9047495126724243 -0.10380265861749649
H 1.0552231073379517 -1.238696575164795 1.0219072103500366
H 1.5641452074050903 -0.571944534778595 -2.220900535583496
H 4.896223545074463 1.2155096530914307 2.1889452934265137
H 5.679553031921387 1.6174921989440918 -3.664027690887451
H 10.39177417755127 1.4575079679489136 -0.596945583820343
