15
Generated by QM7 dataset
C -2.2392499446868896 -1.359279990196228 -0.9815993309020996
O -2.29121732711792 1.3878148794174194 -0.870653510093689
C -0.084281787276268 2.038353204727173 0.6225324869155884
C 2.2622289657592773 1.363853096961975 -0.927798867225647
O 2.312741279602051 -1.3842054605484009 -0.8222576379776001
C 0.07092142105102539 -2.0377862453460693 0.6217198967933655
C -0.02885611727833748 -0.002645616652444005 2.620162010192871
H -2.0619747638702393 -1.937347173690796 -2.958139419555664
H -4.005123138427734 -2.0636942386627197 -0.1704910844564438
H -0.18271762132644653 3.9952967166900635 1.2671369314193726
H 4.009337425231934 2.0658674240112305 -0.07545676082372665
H 2.129607915878296 1.945473074913025 -2.9060020446777344
H 0.15554335713386536 -3.995391368865967 1.2619590759277344
H -1.7437258958816528 -0.0918784812092781 3.771345376968384
H 1.6593117713928223 0.08556679636240005 3.8101413249969482
