16
Generated by QM7 dataset
C 1.6532835960388184 -0.2958366274833679 2.1892099380493164
C 3.0918376445770264 -0.1248164102435112 0.11481975764036179
C 5.100673198699951 1.8504387140274048 -0.29145246744155884
C 7.722177028656006 0.6951924562454224 -0.6543176770210266
O 7.807044506072998 -0.6182805895805359 -3.0149636268615723
N 10.227103233337402 -1.6602377891540527 -3.311933994293213
C 10.257773399353027 -2.9722368717193604 -5.364799976348877
H 0.23322999477386475 -1.7668750286102295 2.3583781719207764
H 1.8532544374465942 1.01202392578125 3.756662130355835
H 2.813140869140625 -1.4806193113327026 -1.408639669418335
H 5.156230926513672 3.154841184616089 1.3168745040893555
H 4.583152770996094 2.9493143558502197 -1.969926118850708
H 8.17590045928955 -0.612082302570343 0.8880956768989563
H 9.137581825256348 2.2075023651123047 -0.6871232986450195
H 11.997361183166504 -3.953779458999634 -5.943698883056641
H 8.595381736755371 -3.177253246307373 -6.606029033660889
