19
Generated by QM7 dataset
C 1.2176260948181152 0.8947286605834961 -1.8860033750534058
C 3.5403263568878174 -0.48936349153518677 -0.9072386026382446
C 5.724377155303955 1.343765377998352 -0.4176483750343323
C 8.055883407592773 0.0261349119246006 0.5811852812767029
C 8.943846702575684 0.5167834162712097 2.907041311264038
O 9.122803688049316 -1.6069097518920898 -1.1456654071807861
C 11.377492904663086 -2.8924527168273926 -0.44166678190231323
H -0.3105197846889496 -0.4460320472717285 -2.266688585281372
H 1.6400177478790283 1.9021227359771729 -3.6429951190948486
H 0.5345468521118164 2.2686541080474854 -0.4983396828174591
H 4.102236270904541 -1.9206420183181763 -2.2964329719543457
H 3.0479013919830322 -1.493412733078003 0.8374132513999939
H 5.09632682800293 2.8088321685791016 0.9088826775550842
H 6.222168922424316 2.324986696243286 -2.175036907196045
H 7.988760471343994 1.854898452758789 4.1364970207214355
H 10.622075080871582 -0.36456596851348877 3.676764488220215
H 11.92672348022461 -4.121133804321289 -2.010838747024536
H 11.066463470458984 -4.0860981941223145 1.2192702293395996
H 12.917884826660156 -1.5508226156234741 -0.11323238909244537
