17
Generated by QM7 dataset
C 2.268143892288208 -0.4158342480659485 -1.0169183015823364
C 5.062765121459961 -0.46260496973991394 -0.3354452848434448
C 5.93060302734375 1.9790912866592407 0.9562770128250122
O 4.529597759246826 2.3342087268829346 3.232848882675171
C 8.715455055236816 1.8994959592819214 1.5092675685882568
C 9.873459815979004 3.2190539836883545 3.753959894180298
O 9.39222240447998 0.5462253093719482 3.7614998817443848
H 1.739606261253357 -2.172712564468384 -1.9730819463729858
H 1.8430120944976807 1.1597249507904053 -2.2876269817352295
H 1.0843437910079956 -0.23247410356998444 0.6689630746841431
H 6.17670202255249 -0.7870331406593323 -2.0525259971618652
H 5.39703893661499 -2.0787744522094727 0.9200698733329773
H 5.5406012535095215 3.600400686264038 -0.2699095904827118
H 5.164338111877441 1.0699251890182495 4.414872646331787
H 9.867223739624023 1.6452144384384155 -0.16145819425582886
H 8.691473960876465 4.405329704284668 4.9312591552734375
H 11.824810028076172 3.821838855743408 3.6285009384155273
