19
Generated by QM7 dataset
C 5.947421550750732 -3.8336496353149414 -0.8890405297279358
C 5.162429332733154 -1.4596055746078491 0.46075302362442017
C 3.400883436203003 -1.5009527206420898 2.288609504699707
C 6.381170749664307 0.9814103841781616 -0.3907008767127991
C 9.22792911529541 1.0490626096725464 0.09159502387046814
C 10.360328674316406 3.5808799266815186 -0.6828147172927856
O 13.019627571105957 3.550360679626465 -0.3009010851383209
H 5.802385330200195 -3.57961368560791 -2.937654972076416
H 4.754947662353516 -5.4463043212890625 -0.3769058883190155
H 7.900283336639404 -4.325110912322998 -0.42018061876296997
H 2.5044918060302734 -3.2519352436065674 2.8757851123809814
H 2.8003852367401123 0.20936276018619537 3.247702121734619
H 5.498101711273193 2.5903420448303223 0.5737208724021912
H 6.005398273468018 1.2430241107940674 -2.411517381668091
H 10.190140724182129 -0.46105536818504333 -0.9553699493408203
H 9.635354042053223 0.6955893039703369 2.0953471660614014
H 9.557517051696777 5.134045600891113 0.4217112958431244
H 10.01180648803711 3.9604501724243164 -2.685281991958618
H 13.319886207580566 3.2153122425079346 1.4814130067825317
