17
Generated by QM7 dataset
C 1.767101764678955 -0.305417537689209 -0.4335976541042328
C 4.605319499969482 0.09352254867553711 -0.06394833326339722
C 6.062827110290527 -1.4227370023727417 -1.8992692232131958
C 7.247534275054932 -2.6671783924102783 -3.383101224899292
C 5.3566365242004395 2.864673614501953 -0.24012750387191772
C 4.819784164428711 4.25095796585083 -2.6691436767578125
C 6.462863445281982 4.060870170593262 1.7120729684829712
H 0.6744621396064758 0.8570852875709534 0.8858091235160828
H 1.2609386444091797 -2.2861907482147217 -0.09798230230808258
H 1.1583642959594727 0.15733860433101654 -2.3583781719207764
H 5.070362091064453 -0.6123657822608948 1.8324674367904663
H 8.303230285644531 -3.765732765197754 -4.699692249298096
H 2.787421703338623 4.3105597496032715 -3.044764518737793
H 5.762625217437744 3.3375964164733887 -4.266850471496582
H 5.488407135009766 6.209356784820557 -2.6021528244018555
H 6.870458602905273 3.096316337585449 3.477020502090454
H 7.003268241882324 6.037372589111328 1.596591830253601
