13
Generated by QM7 dataset
O 3.7651660442352295 -2.176246404647827 0.9440504908561707
C 5.473610877990723 -0.8503767848014832 -0.4024549722671509
O 6.7497992515563965 -1.7770228385925293 -2.07928466796875
C 5.596877574920654 1.8191637992858887 0.40270063281059265
C 7.227616786956787 3.388392448425293 -0.7363506555557251
C 7.467347145080566 6.0230865478515625 -0.06415620446205139
C 9.102017402648926 7.581467628479004 -1.200335144996643
H 2.863842248916626 -1.2316100597381592 2.239760160446167
H 4.366571426391602 2.464656352996826 1.900497555732727
H 8.445791244506836 2.6839025020599365 -2.242349147796631
H 6.26455545425415 6.763575553894043 1.4297667741775513
H 10.35091781616211 6.952037811279297 -2.702232837677002
H 9.227362632751465 9.55169677734375 -0.6422234177589417
