13
Generated by QM7 dataset
O 1.7225420475006104 0.025832556188106537 0.36966821551322937
S 4.38267183303833 0.0801621824502945 -0.2672261595726013
O 5.2721848487854 0.3295115530490875 -2.846022129058838
C 5.90546989440918 2.3913161754608154 1.597876787185669
C 8.356104850769043 1.100538730621338 2.344696521759033
O 7.781098365783691 -1.4495333433151245 3.102268934249878
C 6.020818710327148 -2.448612689971924 1.263149619102478
H 4.716151714324951 2.734036922454834 3.2531824111938477
H 6.187171459197998 4.131167888641357 0.5294067859649658
H 9.68499755859375 1.0190348625183105 0.7568920254707336
H 9.28171157836914 2.0737476348876953 3.915569305419922
H 7.070504665374756 -3.5217692852020264 -0.15573233366012573
H 4.664391994476318 -3.661684513092041 2.234922409057617
