19
Generated by QM7 dataset
C 5.945626258850098 -2.169708013534546 -0.9213359951972961
C 4.599404335021973 0.11933620274066925 0.20713287591934204
N 3.6391589641571045 -0.49631768465042114 2.7278008460998535
C 6.3712873458862305 2.3365139961242676 0.42724817991256714
C 7.011904239654541 3.9127912521362305 -1.8785011768341064
N 5.384793281555176 4.9047465324401855 0.10516326129436493
C 6.615099906921387 6.741239070892334 1.751965045928955
H 6.642954349517822 -1.7427054643630981 -2.8232319355010986
H 4.6667351722717285 -3.79107403755188 -1.0654842853546143
H 7.577801704406738 -2.7345283031463623 0.22234517335891724
H 2.9881105422973633 0.6080004572868347 -1.0012147426605225
H 5.063143253326416 -1.174540400505066 3.826978921890259
H 2.344658851623535 -1.912213921546936 2.5840871334075928
H 7.864624500274658 2.029301404953003 1.7977720499038696
H 6.080174922943115 3.48909592628479 -3.6535398960113525
H 8.908565521240234 4.661576271057129 -2.0574960708618164
H 5.692573070526123 6.741654872894287 3.604123592376709
H 6.408930778503418 8.636918067932129 0.9489826560020447
H 8.637767791748047 6.400124549865723 2.050957679748535
