12
Generated by QM7 dataset
O 2.656066656112671 -0.45684128999710083 0.27627795934677124
C 5.094720363616943 0.5938275456428528 -0.08666284382343292
C 5.96399450302124 -0.1273108422756195 -2.6789512634277344
C 8.27473258972168 -1.0043705701828003 -3.235872507095337
C 5.063143253326416 3.4695181846618652 0.12135821580886841
O 3.17793345451355 4.666357517242432 0.7681170105934143
H 1.6441562175750732 0.8644363284111023 1.080564260482788
H 6.346985340118408 -0.1382334679365158 1.3876447677612305
H 4.578125953674316 0.049794282764196396 -4.189258098602295
H 9.721563339233398 -1.2505451440811157 -1.8021373748779297
H 8.75878620147705 -1.5208326578140259 -5.16310977935791
H 6.884026527404785 4.426154136657715 -0.2234223186969757
