16
Generated by QM7 dataset
C 1.7693883180618286 -0.007502212654799223 0.14154048264026642
C 4.657419204711914 0.0001511780865257606 0.1980999857187271
N 5.557741165161133 0.03382609784603119 2.792712926864624
C 5.737756729125977 2.198148250579834 -1.2427406311035156
C 7.155353546142578 1.3625491857528687 -3.177631139755249
C 7.1596808433532715 -1.3620389699935913 -3.172661304473877
C 5.752137184143066 -2.2006239891052246 -1.2373360395431519
H 1.0419193506240845 -0.0014739864272996783 -1.8000963926315308
H 0.9916715621948242 1.660936951637268 1.0945860147476196
H 0.9993060827255249 -1.6865239143371582 1.0819249153137207
H 7.481898307800293 -0.03220093250274658 2.7653119564056396
H 4.976064682006836 -1.565883755683899 3.6841344833374023
H 5.407678127288818 4.155923366546631 -0.7717641592025757
H 8.159667015075684 2.5158679485321045 -4.525024890899658
H 8.161197662353516 -2.5098965167999268 -4.528823375701904
H 5.42262601852417 -4.1629719734191895 -0.7876756191253662
