16
Generated by QM7 dataset
C 1.9072438478469849 0.02866714634001255 0.13645713031291962
C 4.745461463928223 -0.20031097531318665 0.07596699148416519
C 5.700547695159912 -2.868453025817871 0.286784827709198
C 6.203914165496826 1.874967336654663 -0.15554335713386536
C 9.021759986877441 2.0473859310150146 -0.22140032052993774
O 9.745223045349121 2.971802234649658 -2.6320104598999023
H 1.272390365600586 1.9930185079574585 -0.01037459634244442
H 1.1648650169372559 -0.7394876480102539 1.9086990356445312
H 1.0699251890182495 -1.0207544565200806 -1.438194990158081
H 4.8843183517456055 -4.03435754776001 -1.2161332368850708
H 5.148899078369141 -3.6776716709136963 2.109614610671997
H 7.751486301422119 -3.025394916534424 0.12927617132663727
H 5.279932498931885 3.71008038520813 -0.300220787525177
H 9.986730575561523 0.25490516424179077 0.10952852666378021
H 9.676872253417969 3.386993885040283 1.2115979194641113
H 8.94343090057373 1.877216100692749 -3.87174654006958
