12
Generated by QM7 dataset
N 1.8993070125579834 0.06602703034877777 -0.030349001288414
C 4.421108722686768 -0.006519555114209652 -0.009618706069886684
C 5.969437122344971 2.0674171447753906 0.0025322330184280872
N 8.416084289550781 1.2076106071472168 0.020673604682087898
C 8.419391632080078 -1.385339379310608 0.02084367908537388
C 5.940920829772949 -2.1900413036346436 0.001927520614117384
H 0.9139471650123596 1.709918737411499 0.01003444567322731
H 0.8208403587341309 -1.5173933506011963 0.008447076193988323
H 5.567643642425537 4.069600582122803 -0.0014361918438225985
H 9.973671913146973 2.315443754196167 0.03119937889277935
H 10.175853729248047 -2.4298853874206543 0.033278077840805054
H 5.320713043212891 -4.136308193206787 -0.003949527628719807
