17
Generated by QM7 dataset
C 1.734938621520996 0.014399712905287743 0.2377653419971466
C 4.528407573699951 0.4781574010848999 -0.3119748830795288
C 5.2968645095825195 -0.5883851051330566 -2.841108798980713
C 7.061925411224365 -2.3742141723632812 -3.1584694385528564
C 5.141982555389404 3.31229305267334 -0.25414925813674927
N 7.0003204345703125 4.170228958129883 1.3068022727966309
N 3.9979424476623535 4.957828998565674 -1.662070870399475
H 1.1868613958358765 0.9031757116317749 2.023953437805176
H 1.3421969413757324 -2.012274980545044 0.3839167654514313
H 0.511303186416626 0.7876756191253662 -1.2422304153442383
H 5.627774715423584 -0.4308386743068695 1.1959131956100464
H 4.351699352264404 0.1636313796043396 -4.507072448730469
H 8.072815895080566 -3.197983503341675 -1.5750867128372192
H 7.532278060913086 -3.0582761764526367 -5.036592483520508
H 8.473608016967773 2.987203598022461 1.6093096733093262
H 7.536435604095459 5.953941345214844 0.8458036184310913
H 2.6592414379119873 4.093543529510498 -2.762836217880249
