20
Generated by QM7 dataset
C 1.6720675230026245 1.3554816246032715 0.1569039672613144
N 4.398318767547607 0.9774986505508423 0.15529769659042358
C 5.732767581939697 3.360840082168579 -0.31244730949401855
C 8.601371765136719 2.9294912815093994 -0.3045104742050171
C 10.033349990844727 5.3513641357421875 -0.7252768874168396
C 11.62349796295166 5.7392683029174805 -2.664003610610962
C 13.07125473022461 8.132454872131348 -3.059542179107666
H 0.7274122834205627 -0.44652339816093445 0.5295201539993286
H 1.0015360116958618 2.059593677520752 -1.669969916343689
H 1.0993670225143433 2.675833225250244 1.6437593698501587
H 4.861339569091797 -0.2935689687728882 -1.2173237800598145
H 5.241476535797119 4.736749649047852 1.15902578830719
H 5.156212329864502 4.152937889099121 -2.140265941619873
H 9.101998329162598 1.5305837392807007 -1.750963568687439
H 9.187356948852539 2.1415510177612305 1.5220043659210205
H 9.751534461975098 6.83056640625 0.6748589873313904
H 11.926779747009277 4.2568159103393555 -4.053103446960449
H 12.667665481567383 9.54253101348877 -1.6017696857452393
H 12.591282844543457 8.948760032653809 -4.89750862121582
H 15.10061264038086 7.738503932952881 -3.0324623584747314
