18
Generated by QM7 dataset
C 1.8106600046157837 0.34604665637016296 0.05939409136772156
C 4.685972690582275 0.040874775499105453 0.07364262640476227
C 5.4603071212768555 -1.7174019813537598 2.232900381088257
O 5.385832786560059 -1.160915493965149 -2.245032548904419
C 5.959893703460693 2.6100709438323975 0.11584021151065826
C 7.724009990692139 3.5225818157196045 2.167043447494507
N 8.721917152404785 2.6956753730773926 -0.266356885433197
H 1.1896015405654907 1.452197790145874 -1.579376459121704
H 1.14201819896698 1.3019646406173706 1.7695395946502686
H 0.8662504553794861 -1.4920332431793213 -0.0860581248998642
H 4.953652381896973 -0.9332412481307983 4.079483985900879
H 7.498622417449951 -2.0824782848358154 2.2131526470184326
H 4.546019554138184 -3.56634783744812 2.039222478866577
H 7.211119174957275 -0.9076921343803406 -2.369981050491333
H 4.920053005218506 4.00657844543457 -0.9692027568817139
H 8.165884971618652 2.324249744415283 3.7636919021606445
H 7.803170680999756 5.531682014465332 2.5578954219818115
H 9.20137882232666 4.213257789611816 -1.3639665842056274
