22
Generated by QM7 dataset
C 1.7794417142868042 2.8091344833374023 1.8528386354446411
C 4.586988925933838 3.3387115001678467 2.1896257400512695
C 6.122882843017578 2.326498508453369 -0.05087142810225487
C 9.009685516357422 2.7819037437438965 0.09996651113033295
C 10.179293632507324 1.5128769874572754 2.4311516284942627
C 10.263915061950684 1.7121297121047974 -2.294354200363159
N 9.536200523376465 5.5019941329956055 0.22843009233474731
H 0.7153369188308716 3.5344114303588867 3.4714269638061523
H 1.421111822128296 0.7768853306770325 1.7086904048919678
H 1.0515758991241455 3.721418857574463 0.14477191865444183
H 5.2105231285095215 2.4523165225982666 3.953118085861206
H 4.860016345977783 5.3801069259643555 2.3902769088745117
H 5.386531829833984 3.1846988201141357 -1.7934446334838867
H 5.772111892700195 0.2883533239364624 -0.22446167469024658
H 9.493568420410156 2.3474555015563965 4.196949481964111
H 12.243459701538086 1.6971441507339478 2.433929443359375
H 9.734659194946289 -0.5093001127243042 2.4735381603240967
H 9.52287769317627 2.6141715049743652 -4.0058979988098145
H 9.923254013061523 -0.32405024766921997 -2.462369918823242
H 12.3156099319458 2.0008420944213867 -2.2718098163604736
H 8.860434532165527 6.37472677230835 -1.350417137145996
H 11.43889045715332 5.80419921875 0.2362346649169922
