16
Generated by QM7 dataset
C 1.789589524269104 -0.07487095147371292 0.08154167979955673
C 4.684763431549072 -0.052156440913677216 -0.05875158682465553
C 5.540979385375977 -1.5443220138549805 -2.388538360595703
C 5.720635414123535 2.6778364181518555 -0.06780337542295456
O 4.69821834564209 4.03515100479126 2.0466678142547607
C 8.516995429992676 2.73441481590271 0.020938165485858917
N 10.705487251281738 2.7490034103393555 0.13201627135276794
H 1.1133131980895996 0.8092941045761108 1.8252297639846802
H 1.0686023235321045 -2.0151095390319824 0.055973686277866364
H 0.9563525915145874 0.9378144145011902 -1.5198689699172974
H 5.382601261138916 -1.0319983959197998 1.6332147121429443
H 4.927801132202148 -0.6187341213226318 -4.135552406311035
H 4.745782852172852 -3.4555153846740723 -2.3675434589385986
H 7.599155902862549 -1.738132357597351 -2.450955867767334
H 5.073952674865723 3.6633098125457764 -1.7707867622375488
H 5.456300735473633 3.338522434234619 3.5722436904907227
