15
Generated by QM7 dataset
C 1.8606998920440674 -0.009316349402070045 -0.03314579650759697
C 4.762109756469727 0.0 0.0
C 5.697070598602295 -1.3677082061767578 2.3844187259674072
C 5.750606536865234 -1.3866432905197144 -2.3481547832489014
C 5.672995567321777 2.5722384452819824 0.0
N 6.399047374725342 4.622572422027588 0.0
H 1.1207209825515747 0.9517794847488403 -1.7145106792449951
H 1.0825296640396118 0.9651398062705994 1.6229157447814941
H 1.1150139570236206 -1.9422038793563843 -0.03395837917923927
H 5.025367736816406 -0.4284387230873108 4.104541778564453
H 7.766793251037598 -1.402441382408142 2.4708735942840576
H 5.030753135681152 -3.3273730278015137 2.4345908164978027
H 5.11598014831543 -0.4655529260635376 -4.094583034515381
H 5.089486122131348 -3.350163221359253 -2.397155284881592
H 7.823730945587158 -1.4197701215744019 -2.3912973403930664
