19
Generated by QM7 dataset
C 5.609916687011719 -1.8260990381240845 -1.9216058254241943
C 4.786468505859375 -0.13530439138412476 0.25679486989974976
C 5.976069927215576 2.5072131156921387 0.13475637137889862
C 4.8884758949279785 4.228318691253662 2.18369197845459
C 8.84650707244873 2.4080023765563965 0.38064754009246826
N 10.300538063049316 3.3053011894226074 -1.5367252826690674
N 9.975958824157715 1.5208704471588135 2.3576791286468506
H 4.611989974975586 -3.6365134716033936 -1.8334122896194458
H 7.639255523681641 -2.2221856117248535 -1.8468672037124634
H 5.183443069458008 -0.9491338729858398 -3.7470057010650635
H 5.251794815063477 -1.0711723566055298 2.04449462890625
H 2.722736358642578 0.04408730939030647 0.19587011635303497
H 5.51954984664917 3.3529977798461914 -1.703852653503418
H 5.160880088806152 3.431572675704956 4.075232028961182
H 2.8583431243896484 4.509982585906982 1.8999305963516235
H 5.803292274475098 6.084218978881836 2.1502625942230225
H 9.591872215270996 4.726922988891602 -2.6006789207458496
H 12.127071380615234 3.5544047355651855 -1.0075263977050781
H 8.684463500976562 0.8974120616912842 3.661608934402466
