17
Generated by QM7 dataset
C 1.9490257501602173 0.028893912211060524 -0.10811123251914978
C 4.765435695648193 -0.015495753847062588 -0.02175074815750122
C 6.323779582977295 -1.4270833730697632 -1.9588145017623901
C 5.158404350280762 -2.862349271774292 -4.0835089683532715
C 6.282639980316162 1.420752763748169 -1.9586633443832397
N 8.53625202178955 2.799194574356079 -1.1648838520050049
H 1.221726894378662 1.3892889022827148 1.2719557285308838
H 1.1877684593200684 -1.8347917795181274 0.36978161334991455
H 1.2196481227874756 0.5740799307823181 -1.967072606086731
H 5.435910701751709 -0.08174955099821091 1.9145570993423462
H 8.018542289733887 -2.367354393005371 -1.2874515056610107
H 3.531917095184326 -1.8902174234390259 -4.907259941101074
H 4.537534713745117 -4.720649242401123 -3.4245805740356445
H 6.550187587738037 -3.147357702255249 -5.585954666137695
H 5.251303195953369 2.32867169380188 -3.488377809524536
H 9.440410614013672 1.8988535404205322 0.27773305773735046
H 8.060588836669922 4.538120746612549 -0.4866611659526825
