18
Generated by QM7 dataset
C 1.8916347026824951 -0.10147829353809357 0.004686520900577307
C 4.762109756469727 0.0 0.0
C 5.672995567321777 2.5722384452819824 0.0
C 6.423746109008789 4.692322254180908 0.0
C 7.33463191986084 7.264560699462891 0.0
C 9.315385818481445 7.6641621589660645 -2.0624659061431885
N 5.216532230377197 8.995171546936035 -0.3660966455936432
H 1.2420413494110107 -2.0654706954956055 0.003571582492440939
H 1.10643470287323 0.8359770178794861 -1.6660014390945435
H 1.112103819847107 0.8321220278739929 1.6801743507385254
H 5.472401142120361 -1.0068650245666504 -1.6642440557479858
H 5.47803258895874 -1.009170413017273 1.6604079008102417
H 8.20042896270752 7.68980598449707 1.8324106931686401
H 8.543187141418457 7.29827356338501 -3.9488472938537598
H 10.923977851867676 6.389617443084717 -1.7918950319290161
H 10.037280082702637 9.60321044921875 -2.0310020446777344
H 4.380951881408691 8.607380867004395 -2.056570053100586
H 5.87833309173584 10.795760154724121 -0.49225476384162903
