14
Generated by QM7 dataset
N 2.665231943130493 0.9299909472465515 1.0571506023406982
C 4.742891311645508 -0.01778232306241989 -0.5901992917060852
C 4.194851875305176 0.7068898677825928 -3.2709269523620605
C 4.005822658538818 -0.9368695020675659 -5.1905107498168945
C 7.254790782928467 1.2092924118041992 0.27608898282051086
O 6.821797847747803 3.1410648822784424 1.923949122428894
O 9.366710662841797 0.5976259112358093 -0.42394116520881653
H 2.6896471977233887 -0.13619256019592285 2.675323009490967
H 0.9986635446548462 0.4282308518886566 0.2082289159297943
H 4.900362014770508 -2.0667178630828857 -0.3390735685825348
H 3.9763617515563965 2.713930130004883 -3.672210216522217
H 4.247272968292236 -2.956930160522461 -4.919051647186279
H 3.635927677154541 -0.2806054353713989 -7.098246097564697
H 4.961060047149658 3.25439190864563 2.088752031326294
