17
Generated by QM7 dataset
C 1.9139713048934937 0.24241407215595245 0.24594785273075104
C 4.724976539611816 -0.18919937312602997 -0.08535893261432648
O 6.174226760864258 1.7923107147216797 1.133325457572937
C 7.6823225021362305 -0.059242915362119675 2.4618217945098877
C 5.949198246002197 -2.214777946472168 1.608704924583435
C 7.175384521484375 -4.3866400718688965 0.21285875141620636
O 8.492901802062988 -5.9455695152282715 1.962310552597046
H 0.841702938079834 -1.3774213790893555 -0.46585530042648315
H 1.3056306838989258 1.9177886247634888 -0.8040595650672913
H 1.4140064716339111 0.5190699696540833 2.2349979877471924
H 5.2477126121521 -0.3154141902923584 -2.087996244430542
H 9.619367599487305 -0.0970374345779419 1.7393417358398438
H 7.705868721008301 0.2928319573402405 4.498058319091797
H 4.6985392570495605 -2.875199317932129 3.1270809173583984
H 8.500158309936523 -3.751692295074463 -1.2444980144500732
H 5.735715866088867 -5.556097030639648 -0.7016175389289856
H 10.057765007019043 -5.094890594482422 2.415013313293457
