18
Generated by QM7 dataset
C 1.7039471864700317 -0.210874542593956 0.5539543032646179
C 4.488364219665527 0.24065662920475006 0.04352039471268654
N 5.602187633514404 2.1779661178588867 1.755347728729248
C 7.962493419647217 0.6616498231887817 1.8106600046157837
C 6.384458541870117 -1.708406925201416 1.157173752784729
C 7.5287065505981445 -3.5043647289276123 -0.6697567105293274
C 9.342824935913086 -5.0973663330078125 0.08314795047044754
H 1.0225497484207153 -1.8233588933944702 -0.5500425696372986
H 0.5801270008087158 1.4406894445419312 0.011546226218342781
H 1.3328427076339722 -0.6124224662780762 2.5510735511779785
H 4.811242580413818 0.6960995197296143 -1.957397222518921
H 4.738015651702881 2.279179811477661 3.4767558574676514
H 9.336456298828125 1.2488255500793457 0.37331539392471313
H 8.912552833557129 0.6208884119987488 3.6472091674804688
H 5.652888774871826 -2.677212715148926 2.84458589553833
H 6.872707366943359 -3.5168559551239014 -2.6146628856658936
H 10.03300952911377 -5.127809524536133 2.0151660442352295
H 10.187418937683105 -6.4190216064453125 -1.2401894330978394
