15
Generated by QM7 dataset
C 4.058130264282227 -0.9606611728668213 2.6915180683135986
C 4.34786319732666 0.11559455096721649 0.0387960784137249
C 5.4549970626831055 2.743920087814331 0.06162396818399429
C 4.069562911987305 4.858901500701904 -0.20437388122081757
N 1.5010284185409546 5.114165782928467 -0.4690867066383362
C 8.138105392456055 2.9794557094573975 0.29993733763694763
N 10.312613487243652 3.1623055934906006 0.5075993537902832
H 3.243828296661377 -2.860478401184082 2.6033434867858887
H 2.80558180809021 0.21739409863948822 3.8434195518493652
H 5.884097099304199 -1.0973073244094849 3.6557319164276123
H 2.502432107925415 0.09348475188016891 -0.9023064374923706
H 5.559385299682617 -1.1383143663406372 -1.0840035676956177
H 5.007755279541016 6.697019577026367 -0.23753857612609863
H 0.4561043083667755 3.6115500926971436 0.11746537685394287
H 0.8009037375450134 6.793924331665039 0.1594928801059723
