21
Generated by QM7 dataset
C 1.3404772281646729 -0.7717263698577881 0.6525980234146118
C 3.7115166187286377 -0.34357109665870667 2.241725444793701
N 5.185691833496094 1.897284984588623 1.483019232749939
C 3.6971356868743896 4.224142551422119 1.7440282106399536
C 7.519787311553955 2.140265941619873 3.0109007358551025
C 9.493795394897461 0.04688410460948944 2.526620626449585
N 11.853477478027344 0.5371546745300293 3.8942153453826904
H 0.5147235989570618 -2.6135480403900146 1.1104408502578735
H 1.7812180519104004 -0.7601801156997681 -1.3672924041748047
H -0.10503097623586655 0.6571144461631775 1.0259701013565063
H 4.870164394378662 -2.041792392730713 2.0053207874298096
H 3.182128667831421 -0.2395416796207428 4.243266582489014
H 2.0888466835021973 4.236123561859131 0.44474703073501587
H 4.832388877868652 5.880279541015625 1.2363344430923462
H 2.9957828521728516 4.486568927764893 3.6743078231811523
H 7.060924053192139 2.218916416168213 5.032737731933594
H 8.427574157714844 3.9450299739837646 2.533820390701294
H 9.904092788696289 -0.08552900701761246 0.5018923878669739
H 8.777985572814941 -1.7912336587905884 3.150022268295288
H 12.634407043457031 2.1714465618133545 3.2369308471679688
H 13.115473747253418 -0.8583514094352722 3.475451946258545
