12
Generated by QM7 dataset
C 1.8898961544036865 0.08233536779880524 -0.015174500644207
N 4.609004020690918 -0.06122712790966034 0.0013795000268146396
C 6.157445907592773 2.029017925262451 0.006632938515394926
C 8.621875762939453 1.4776524305343628 0.017839014530181885
S 9.134501457214355 -1.7668750286102295 0.021127138286828995
C 5.838119983673096 -2.376481771469116 0.005385719705373049
O 4.911398410797119 -4.4853973388671875 -0.0012094246922060847
H 1.2454806566238403 2.045912027359009 0.012339911423623562
H 1.154471516609192 -0.9135881066322327 1.6411137580871582
H 1.17947256565094 -0.8593907356262207 -1.7137359380722046
H 5.358412742614746 3.912621259689331 0.0019842125475406647
H 10.145183563232422 2.8389923572540283 0.02377275563776493
