15
Generated by QM7 dataset
C 1.7491682767868042 -0.2157689332962036 0.018368138000369072
C 4.564028739929199 9.448630589758977e-05 0.004932185169309378
C 5.856601238250732 2.173185110092163 -0.004988877102732658
C 4.834013938903809 4.712277889251709 0.0006047123461030424
C 6.817092418670654 6.301008224487305 -0.009939959272742271
C 9.14455509185791 4.845881462097168 -0.023168042302131653
C 8.5885591506958 2.3705859184265137 -0.01999330334365368
H 1.1992769241333008 -2.209826946258545 -0.02706087753176689
H 0.9231501221656799 0.6972900629043579 -1.6438161134719849
H 0.949114978313446 0.6155216097831726 1.7353732585906982
H 5.598710536956787 -1.7753410339355469 0.002777897519990802
H 2.862802743911743 5.220368385314941 0.012944623827934265
H 6.735985279083252 8.338113784790039 -0.008125822059810162
H 11.009960174560547 5.667553424835205 -0.03348594531416893
H 9.90473461151123 0.8171175718307495 -0.027344336733222008
