19
Generated by QM7 dataset
C 2.704122543334961 -2.347228765487671 -0.7604258060455322
C 5.17435359954834 -1.3973579406738281 0.36231720447540283
C 5.72866678237915 1.3231295347213745 -0.4513988792896271
C 8.133532524108887 2.389709949493408 0.7413584589958191
N 10.369569778442383 1.0569994449615479 -0.09253989160060883
C 11.601085662841797 1.3789331912994385 -2.325345754623413
N 11.1981201171875 3.0259807109832764 -4.051402568817139
H 2.3515563011169434 -4.297123908996582 -0.1687336415052414
H 2.764008045196533 -2.3047478199005127 -2.827559471130371
H 1.1097416877746582 -1.1888834238052368 -0.1324320137500763
H 6.708660125732422 -2.6513614654541016 -0.24046765267848969
H 5.065902233123779 -1.5063574314117432 2.427561044692993
H 4.1372528076171875 2.5287559032440186 0.10760100930929184
H 5.856129169464111 1.4174835681915283 -2.5181167125701904
H 8.010265350341797 2.253706216812134 2.804410219192505
H 8.299072265625 4.406898021697998 0.30073100328445435
H 10.834253311157227 -0.4943523705005646 0.9344695806503296
H 13.144330024719238 -0.0027401028200984 -2.5835769176483154
H 9.732542991638184 4.170852184295654 -3.5399672985076904
