17
Generated by QM7 dataset
O 4.301886081695557 -0.672648012638092 -2.5881688594818115
C 4.475797653198242 0.19607798755168915 -0.03603707626461983
C 5.992491722106934 2.6524763107299805 -0.018935056403279305
O 8.350473403930664 2.2604148387908936 -1.3558028936386108
C 4.495412826538086 5.040523052215576 -0.8547987341880798
C 5.816898345947266 6.485048770904541 1.2984119653701782
C 6.252064228057861 3.924280881881714 2.6115260124206543
H 3.3897528648376465 -2.2699012756347656 -2.5404722690582275
H 5.438348293304443 -1.2604095935821533 1.0748573541641235
H 2.5654921531677246 0.45657673478126526 0.7134661078453064
H 7.807044506072998 1.4052948951721191 -2.902808427810669
H 2.441469430923462 4.89877462387085 -0.626255214214325
H 4.904689788818359 5.742537498474121 -2.7550127506256104
H 7.5672383308410645 7.426019191741943 0.7142786979675293
H 4.6405816078186035 7.833481788635254 2.3288984298706055
H 8.089369773864746 3.7193589210510254 3.5351674556732178
H 4.766834259033203 3.4155287742614746 3.9632091522216797
