13
Generated by QM7 dataset
C 1.7270395755767822 0.15174500644207 -0.33177921175956726
C 4.234063625335693 0.12065901607275009 0.009958856739103794
C 5.71477746963501 2.5105011463165283 -0.09008324146270752
O 4.716397285461426 4.566164016723633 -0.44979262351989746
N 8.263413429260254 2.1265087127685547 0.25849562883377075
C 9.958157539367676 4.05495548248291 0.23763306438922882
N 12.324566841125488 3.640028238296509 0.5624580979347229
H 0.6289575695991516 -1.5779024362564087 -0.26178374886512756
H 0.7108204960823059 1.901820421218872 -0.6896555423736572
H 5.208236217498779 -1.6431357860565186 0.36458486318588257
H 8.917750358581543 0.3636966943740845 0.5366443991661072
H 9.194613456726074 5.9667534828186035 -0.06957971304655075
H 12.70045280456543 1.7674986124038696 0.8188372254371643
