16
Generated by QM7 dataset
N 1.9747259616851807 0.1671084761619568 -0.517558217048645
C 4.725845813751221 0.004724315367639065 -0.14945843815803528
C 6.276082992553711 -1.39841628074646 -2.0756373405456543
C 6.413692474365234 1.437212347984314 -1.953617811203003
O 5.116528034210205 2.760133981704712 -3.9589195251464844
C 8.766666412353516 2.7254953384399414 -1.0459256172180176
O 10.335555076599121 3.2823598384857178 -3.159886598587036
H 1.224712610244751 1.5124611854553223 0.6461729407310486
H 1.1377663612365723 -1.4912395477294922 0.0074455211870372295
H 5.338325023651123 -0.1508946269750595 1.8061813116073608
H 5.333808898925781 -2.2392876148223877 -3.6876683235168457
H 7.890948295593262 -2.4731791019439697 -1.4177480936050415
H 3.324084997177124 2.307544469833374 -3.873296022415161
H 9.843413352966309 1.5570776462554932 0.27769526839256287
H 8.290776252746582 4.5058817863464355 -0.10718526691198349
H 9.16203498840332 3.777411460876465 -4.497963905334473
