12
Generated by QM7 dataset
C 4.813472747802734 0.2362346649169922 1.4526891708374023
N 3.2810935974121094 0.8068374991416931 -0.7885071039199829
C 4.925570964813232 2.6452198028564453 -1.442522406578064
C 4.973097801208496 5.134933948516846 -2.0676627159118652
O 6.7149338722229 6.298192501068115 -0.4941255748271942
C 7.495938777923584 4.5134406089782715 1.2514899969100952
C 6.481722831726074 2.252931594848633 0.5760074257850647
H 5.587939262390137 -1.679305076599121 1.374397873878479
H 3.849013090133667 0.5539165139198303 3.2512738704681396
H 3.226839542388916 -0.7169620990753174 -1.962764024734497
H 3.8226325511932373 6.398688316345215 -3.182204246520996
H 8.484039306640625 5.2582573890686035 2.874027729034424
