12
Generated by QM7 dataset
C 1.889726161956787 0.0 0.0
C 4.618490695953369 0.0 0.0
C 6.86756706237793 0.0 0.0
C 9.574146270751953 -0.11156943440437317 -0.1710769087076187
N 10.627876281738281 2.078528642654419 -0.026758521795272827
N 13.179951667785645 1.994681477546692 -0.2547350823879242
H 1.145079493522644 1.9291458129882812 0.022072000429034233
H 1.1450039148330688 -0.9836591482162476 1.6596330404281616
H 1.1450417041778564 -0.9454299807548523 -1.681723952293396
H 10.528571128845215 -1.9445282220840454 -0.4401738941669464
H 13.887975692749023 3.789675712585449 -0.13556894659996033
H 14.001566886901855 1.0150285959243774 1.1945903301239014
