22
Generated by QM7 dataset
C 4.377588272094727 -1.6554945707321167 -2.5025265216827393
C 3.8128058910369873 -0.08877933025360107 -0.1500820517539978
C 5.172652721405029 2.50734543800354 -0.009599808603525162
C 4.305457592010498 4.2027130126953125 -2.218897581100464
C 4.413625240325928 3.8375425338745117 2.4708735942840576
N 7.945769309997559 2.3016674518585205 -0.23419375717639923
C 9.20748233795166 0.8290228843688965 1.7174397706985474
H 3.3961024284362793 -3.4737513065338135 -2.3841352462768555
H 6.398121356964111 -2.046384334564209 -2.6968281269073486
H 3.7215888500213623 -0.7116330862045288 -4.220571041107178
H 4.278453350067139 -1.2266968488693237 1.5192264318466187
H 1.7618294954299927 0.2133311778306961 -0.06256883591413498
H 4.926761627197266 3.466381311416626 -4.051364898681641
H 5.066884994506836 6.122278213500977 -2.041433334350586
H 2.24096941947937 4.357991695404053 -2.271998882293701
H 4.832993507385254 2.6759467124938965 4.131886005401611
H 2.3803179264068604 4.233855724334717 2.502715587615967
H 5.399949073791504 5.645726680755615 2.692406177520752
H 8.717911720275879 4.068108081817627 -0.2725174129009247
H 8.547760009765625 -1.1275618076324463 1.773451328277588
H 9.003335952758789 1.6765650510787964 3.590933084487915
H 11.23228645324707 0.7611249685287476 1.2969189882278442
