14
Generated by QM7 dataset
C 1.9571893215179443 -0.014267432503402233 0.4610931873321533
C 4.760390281677246 -0.1921662539243698 0.009202966466546059
C 5.795431137084961 -2.346945285797119 -0.8461815714836121
C 6.366336345672607 1.9894280433654785 0.5028561353683472
C 5.594080448150635 4.2500319480896 1.3563698530197144
C 7.31872034072876 6.265897274017334 1.778818130493164
N 8.718950271606445 7.9154767990112305 2.1260552406311035
H 1.1164501905441284 1.4603614807128906 -0.7233304977416992
H 1.5611594915390015 0.41541850566864014 2.446741819381714
H 0.986852765083313 -1.7877943515777588 0.01273675449192524
H 4.6485185623168945 -4.005123138427734 -1.231704592704773
H 7.8098225593566895 -2.53871488571167 -1.1919636726379395
H 8.378213882446289 1.723127841949463 0.13273435831069946
H 3.6274616718292236 4.644228935241699 1.7622451782226562
