16
Generated by QM7 dataset
C 2.477846622467041 -0.12016768753528595 2.2135872840881348
C 3.9252824783325195 0.2622183859348297 -0.2318315953016281
C 6.057913780212402 2.1283419132232666 0.1138560026884079
O 5.11004638671875 4.506921291351318 0.34287190437316895
C 6.662210464477539 6.62318754196167 1.0029155015945435
N 8.374113082885742 1.3215610980987549 0.13880038261413574
O 10.200779914855957 3.201460599899292 0.36906352639198303
H 1.0113813877105713 -1.5573421716690063 1.9649183750152588
H 1.560970425605774 1.6334792375564575 2.8197171688079834
H 3.73738694190979 -0.730341374874115 3.737783908843994
H 2.6660633087158203 0.9497196674346924 -1.72411048412323
H 4.707818031311035 -1.5450589656829834 -0.8702566623687744
H 5.407299995422363 8.226638793945312 1.3598469495773315
H 7.8980536460876465 7.1248345375061035 -0.5748924612998962
H 7.717395782470703 6.253273963928223 2.7409911155700684
H 11.77100944519043 2.238985300064087 0.2881454527378082
