12
Generated by QM7 dataset
N 2.041131019592285 -0.17417605221271515 -0.03945748135447502
C 4.23646354675293 -0.1155567541718483 0.02267671376466751
C 6.935635089874268 0.07725200802087784 0.08071020245552063
N 8.240415573120117 -1.9931697845458984 0.1020263135433197
N 10.687932014465332 -1.2196670770645142 0.2327197790145874
C 10.962981224060059 1.4308627843856812 -0.49790504574775696
C 8.364853858947754 2.487333059310913 0.12268102169036865
H 11.904178619384766 -2.4049031734466553 -0.6892586946487427
H 11.338526725769043 1.575918197631836 -2.529284954071045
H 12.476141929626465 2.381319522857666 0.5385152697563171
H 7.673251628875732 3.8231427669525146 -1.2900971174240112
H 8.27456283569336 3.307795524597168 2.0180952548980713
