19
Generated by QM7 dataset
C 1.5381803512573242 0.021070446819067 -1.057075023651123
C 4.231890678405762 0.003930630162358284 -0.09571462869644165
C 6.122315883636475 -1.4411240816116333 -1.7041739225387573
C 6.1472601890563965 1.3914998769760132 -1.7258490324020386
C 4.589521408081055 0.022147590294480324 2.8155975341796875
C 2.905472755432129 1.4593220949172974 4.6140875816345215
C 2.892584800720215 -1.3766276836395264 4.631983280181885
H 1.4570355415344238 0.004459753632545471 -3.1266462802886963
H 0.5431450605392456 1.7173831462860107 -0.41785624623298645
H 0.511397659778595 -1.6452144384384155 -0.3896237313747406
H 5.451519966125488 -2.4106101989746094 -3.3802664279937744
H 7.6607232093811035 -2.4083614349365234 -0.758743941783905
H 7.702693939208984 2.345433473587036 -0.7946298122406006
H 5.493981838226318 2.347625732421875 -3.416076898574829
H 6.581141471862793 0.01636502891778946 3.366471529006958
H 1.2568001747131348 2.423328161239624 3.881516456604004
H 3.7980849742889404 2.427844524383545 6.184317588806152
H 3.776031970977783 -2.333603858947754 6.214288711547852
H 1.2350871562957764 -2.3348701000213623 3.9108827114105225
