18
Generated by QM7 dataset
C 6.413692474365234 -2.7467737197875977 2.111825704574585
C 5.229023456573486 -0.1611936390399933 2.579230546951294
N 6.169804573059082 1.8166881799697876 0.8724109530448914
C 4.714848041534424 4.148138046264648 1.1836488246917725
C 8.90365219116211 2.2887229919433594 1.0480042695999146
C 9.78422737121582 3.098829507827759 3.560565233230591
C 10.51583480834961 3.7583062648773193 5.607762336730957
H 5.435873031616211 -4.181812763214111 3.2376489639282227
H 8.408411979675293 -2.790105104446411 2.6543281078338623
H 6.258603096008301 -3.2916383743286133 0.12158498167991638
H 5.475197792053223 0.3633943498134613 4.569320201873779
H 3.1879868507385254 -0.37666022777557373 2.2775356769561768
H 2.71396803855896 3.8098957538604736 0.7696098685264587
H 5.348945617675781 5.595403671264648 -0.15484416484832764
H 4.848886013031006 4.922831058502197 3.0990374088287354
H 9.428335189819336 3.728316307067871 -0.35033631324768066
H 9.943587303161621 0.5958684682846069 0.46258607506752014
H 11.161062240600586 4.34100341796875 7.422919750213623
