18
Generated by QM7 dataset
N 1.979771614074707 0.032503288239240646 0.14042554795742035
C 4.720951557159424 0.034449707716703415 -0.10813012719154358
C 5.8324127197265625 2.007097005844116 1.7311214208602905
C 7.821463108062744 -0.006406171713024378 2.449028491973877
C 5.8638200759887695 -2.038390874862671 1.6307580471038818
C 6.904303550720215 -4.343667984008789 0.2810589671134949
O 8.205625534057617 -5.910515308380127 2.0360665321350098
H 1.1143337488174438 -1.4733250141143799 -0.6947389245033264
H 1.1307176351547241 1.601883053779602 -0.5834529399871826
H 5.456055164337158 0.11686066538095474 -2.03995943069458
H 4.623139381408691 2.550865650177002 3.324160575866699
H 6.587850093841553 3.719529151916504 0.8559136390686035
H 9.529831886291504 0.06646166741847992 1.278475284576416
H 8.373905181884766 -0.04478650912642479 4.439174652099609
H 4.628582000732422 -2.588735818862915 3.211759567260742
H 8.211332321166992 -3.8347644805908203 -1.2394146919250488
H 5.368239402770996 -5.457907199859619 -0.5405939817428589
H 9.572823524475098 -4.920336723327637 2.7606253623962402
