15
Generated by QM7 dataset
C 1.886078953742981 -0.05019112676382065 0.02352708950638771
C 4.770613670349121 0.02362157590687275 -0.04316134378314018
C 5.762814521789551 -1.4349257946014404 -2.334851026535034
C 5.70946741104126 2.76094651222229 -0.04958641529083252
O 8.39361572265625 2.85208797454834 0.07702523469924927
H 1.165658712387085 0.9253799915313721 1.7001866102218628
H 1.2014501094818115 -2.0019948482513428 0.08664394170045853
H 1.0724574327468872 0.8602411150932312 -1.6472176313400269
H 5.496419429779053 -0.9227154850959778 1.6547764539718628
H 5.139639377593994 -0.5623636245727539 -4.104428291320801
H 5.07994270324707 -3.388789176940918 -2.3104169368743896
H 7.830174922943115 -1.4960583448410034 -2.3424477577209473
H 4.959737300872803 3.8060595989227295 1.5711939334869385
H 5.120288372039795 3.7473647594451904 -1.7694828510284424
H 8.90282154083252 1.989824891090393 1.618285894393921
