15
Generated by QM7 dataset
C 1.812322974205017 -0.032919030636548996 0.23583781719207764
C 4.677091121673584 0.008125822059810162 -0.04728094860911369
O 5.263076305389404 0.0893840491771698 -2.7180309295654297
C 5.999823570251465 2.0760908126831055 1.5884281396865845
C 7.796348571777344 -0.023054659366607666 2.4962525367736816
O 9.843942642211914 -0.02666403539478779 3.520559787750244
C 6.049787998199463 -2.1113531589508057 1.474307656288147
H 1.239660382270813 -0.0927666574716568 2.2229037284851074
H 1.0059767961502075 -1.6913615465164185 -0.7052268981933594
H 0.9657067656517029 1.6546064615249634 -0.6156160831451416
H 7.096242904663086 0.11257098615169525 -2.857095956802368
H 4.865685939788818 2.888068437576294 3.113739490509033
H 6.933027267456055 3.5815980434417725 0.5307673811912537
H 7.018310546875 -3.5351107120513916 0.3358610272407532
H 4.936550617218018 -3.0325191020965576 2.951676607131958
