13
Generated by QM7 dataset
C 1.9263490438461304 0.012869034893810749 -0.32096996903419495
C 4.415874004364014 -0.07628824561834335 0.034204043447971344
C 6.029171466827393 -2.262172222137451 0.44567301869392395
C 8.414950370788574 -1.4178993701934814 0.7095165848731995
N 8.538614273071289 1.171762466430664 0.4999459385871887
C 6.176721096038818 2.163301706314087 0.09798230230808258
N 5.5527143478393555 4.489479064941406 -0.16661715507507324
H 0.9895929098129272 1.8180110454559326 -0.6026336550712585
H 0.7778679728507996 -1.6805334091186523 -0.3400562107563019
H 5.397435665130615 -4.196760654449463 0.5261942148208618
H 10.108579635620117 -2.5089893341064453 1.046416997909546
H 10.15334701538086 2.158048391342163 0.7043009400367737
H 7.13347053527832 5.588052272796631 -0.03839923441410065
