14
Generated by QM7 dataset
C 1.8596606254577637 -0.9861536026000977 0.37805861234664917
C 4.7053422927856445 -0.8621497750282288 0.06234206631779671
C 5.534856796264648 1.8373051881790161 -0.24145030975341797
N 7.018102645874023 2.87642765045166 1.3954493999481201
O 7.4991326332092285 5.385832786560059 0.6638985872268677
C 9.144743919372559 6.496027946472168 2.3223979473114014
O 10.151022911071777 5.590887069702148 4.1917338371276855
H 1.2432886362075806 -2.947084665298462 0.598646342754364
H 0.8949365019798279 -0.18496640026569366 -1.2672502994537354
H 1.2514899969100952 0.07959526777267456 2.0432286262512207
H 5.27500057220459 -1.8996094465255737 -1.6348021030426025
H 5.648712635040283 -1.709389567375183 1.6974842548370361
H 4.8278913497924805 2.868830919265747 -1.9110989570617676
H 9.455263137817383 8.452083587646484 1.6851632595062256
