20
Generated by QM7 dataset
C 4.451760292053223 -0.8402100205421448 -2.969836950302124
C 4.602919101715088 0.0893273577094078 -0.25505632162094116
C 6.262231349945068 2.4341561794281006 -0.05601148307323456
N 5.035345554351807 4.7650580406188965 -1.0498751401901245
C 6.206219673156738 6.208506107330322 1.0457366704940796
C 6.34991455078125 3.7321524620056152 2.5744307041168213
C 8.702548027038574 3.317263126373291 4.15015983581543
H 3.311291456222534 -2.5627520084381104 -3.0767009258270264
H 6.335363388061523 -1.2658897638320923 -3.714370012283325
H 3.5885331630706787 0.5785963535308838 -4.203393459320068
H 5.405278205871582 -1.4172378778457642 0.9198997616767883
H 2.6925761699676514 0.45502716302871704 0.460223913192749
H 8.14704418182373 2.12252140045166 -0.8739416599273682
H 3.109865665435791 4.726507186889648 -0.9476220607757568
H 8.035266876220703 7.040533542633057 0.537816047668457
H 5.008965015411377 7.688483238220215 1.8517804145812988
H 4.634628772735596 3.409935235977173 3.7024271488189697
H 10.426941871643066 3.6512720584869385 3.0562350749969482
H 8.765249252319336 1.3769111633300781 4.863814830780029
H 8.721161842346191 4.594321250915527 5.77702522277832
