17
Generated by QM7 dataset
C 2.7780675888061523 -0.14301447570323944 0.03187967836856842
O 4.015781402587891 1.755914568901062 1.4937340021133423
N 5.131834983825684 3.4434211254119873 -0.22363018989562988
C 3.8025636672973633 5.846529006958008 -0.3450261950492859
C 7.733288288116455 3.415679931640625 -0.08362038433551788
N 9.236395835876465 5.206686973571777 -0.7700445055961609
C 11.896109580993652 4.598742961883545 -0.37214377522468567
H 1.982398271560669 -1.5378024578094482 1.333371877670288
H 4.1205668449401855 -1.1017481088638306 -1.2171348333358765
H 1.2333863973617554 0.6823989748954773 -1.0694149732589722
H 1.7699174880981445 5.5371623039245605 -0.56882643699646
H 4.446752548217773 6.956743240356445 -1.9669781923294067
H 4.110513210296631 6.942551612854004 1.382391333580017
H 8.455787658691406 1.6115962266921997 0.6876146197319031
H 13.020024299621582 6.325669288635254 -0.570073664188385
H 12.56063175201416 3.2432992458343506 -1.7854321002960205
H 12.248014450073242 3.8476147651672363 1.526350736618042
