19
Generated by QM7 dataset
C 1.7982256412506104 -0.20953282713890076 -0.3626951277256012
C 4.642792701721191 0.11087023466825485 -0.03924961015582085
C 6.128759860992432 -1.451215147972107 -1.950046181678772
C 5.387968063354492 2.8984053134918213 -0.1712847799062729
C 5.029940605163574 4.31214714050293 -2.6365082263946533
N 6.323458194732666 3.906177282333374 1.8731721639633179
N 7.008824348449707 6.359060764312744 1.710825800895691
H 0.7672098875045776 0.984963059425354 0.9770451188087463
H 1.2434208393096924 -2.1748480796813965 -0.027287645265460014
H 1.1735577583312988 0.3062112331390381 -2.266310691833496
H 5.141340255737305 -0.573380708694458 1.855446457862854
H 5.620328903198242 -0.9757978916168213 -3.8984673023223877
H 5.7676897048950195 -3.4707844257354736 -1.6788326501846313
H 8.162633895874023 -1.1293381452560425 -1.7394551038742065
H 3.9931235313415527 3.1758549213409424 -4.011510848999023
H 6.880171775817871 4.775073528289795 -3.4336512088775635
H 3.9617919921875 6.050959587097168 -2.3084516525268555
H 7.37114143371582 7.031859874725342 3.487262725830078
H 8.690718650817871 6.532462120056152 0.7739562392234802
