16
Generated by QM7 dataset
C 2.1692166328430176 0.2818337678909302 0.1373264044523239
C 4.996643543243408 -0.21480517089366913 -0.09163282066583633
C 5.587712287902832 -1.5322843790054321 -2.4734814167022705
C 6.064527988433838 -2.624262571334839 -4.4074273109436035
C 6.462863445281982 2.2199935913085938 -0.25001075863838196
C 7.022940635681152 3.704789161682129 2.123598575592041
N 9.025879859924316 2.3644063472747803 0.7945353388786316
H 1.7427054643630981 1.305895209312439 1.8848695755004883
H 1.104034662246704 -1.4934316873550415 0.156828373670578
H 1.462761402130127 1.422642469406128 -1.4415397644042969
H 5.621802806854248 -1.3579572439193726 1.5200201272964478
H 6.499826431274414 -3.5956575870513916 -6.115588188171387
H 6.092533588409424 3.2969484329223633 -1.9569058418273926
H 6.479511737823486 2.923292875289917 3.9354302883148193
H 7.056672096252441 5.747885704040527 2.01873779296875
H 10.110450744628906 3.566725730895996 -0.2570783495903015
