14
Generated by QM7 dataset
N 4.0828857421875 -0.8718629479408264 -2.575469970703125
C 4.484093189239502 0.09597919136285782 -0.01721540465950966
C 5.9474406242370605 2.553492546081543 -0.0977933257818222
C 4.511003017425537 4.933678150177002 -0.9090338349342346
O 4.861830711364746 6.031589984893799 1.5840251445770264
C 6.08571195602417 3.9494519233703613 2.445721387863159
O 6.897972583770752 3.5374162197113037 4.539594650268555
H 2.9772257804870605 -2.4519574642181396 -2.484196186065674
H 5.760829925537109 -1.4728714227676392 -3.315033197402954
H 5.516488552093506 -1.3196146488189697 1.085288643836975
H 2.6423661708831787 0.3618069589138031 0.8919318318367004
H 7.8204426765441895 2.3724188804626465 -0.9678232669830322
H 2.5049076080322266 4.699843406677246 -1.3517589569091797
H 5.429466724395752 6.067022323608398 -2.373741626739502
