20
Generated by QM7 dataset
C 3.0415897369384766 -1.763057827949524 -0.03409066051244736
C 5.824513912200928 -1.0346628427505493 0.23923933506011963
N 7.352149486541748 -2.5204789638519287 -1.5390874147415161
C 6.181596755981445 1.819314956665039 -0.2159012109041214
C 8.904994010925293 2.8001961708068848 0.040610212832689285
C 10.037468910217285 2.39607834815979 2.6528921127319336
O 10.507935523986816 1.6475387811660767 -1.7894951105117798
H 1.8830554485321045 -0.7425490021705627 1.344483494758606
H 2.765878677368164 -3.7887120246887207 0.29485395550727844
H 2.320413589477539 -1.318783164024353 -1.9238923788070679
H 6.427922248840332 -1.5064518451690674 2.162205696105957
H 6.694524765014648 -2.2302358150482178 -3.3337981700897217
H 7.064003944396973 -4.4006242752075195 -1.200505256652832
H 4.974194049835205 2.86767840385437 1.1060189008712769
H 5.5106682777404785 2.2735671997070312 -2.1268489360809326
H 8.902934074401855 4.8305745124816895 -0.36466044187545776
H 10.351371765136719 0.3906819820404053 3.048921823501587
H 8.82965087890625 3.1956024169921875 4.129448413848877
H 11.894484519958496 3.3048665523529053 2.7668802738189697
H 10.071163177490234 -0.15979523956775665 -1.7789314985275269
