19
Generated by QM7 dataset
C 4.225106239318848 -0.9099598526954651 -2.709489345550537
C 4.596456527709961 0.06381604820489883 -0.03255997970700264
C 6.1613006591796875 2.477374315261841 -0.040345653891563416
C 4.871260643005371 4.915990352630615 -1.0233622789382935
C 6.167121410369873 6.369076251983643 1.1498605012893677
O 8.482829093933105 7.663538455963135 0.5337909460067749
C 6.433081150054932 3.8204026222229004 2.5461981296539307
H 3.133751630783081 -2.665855646133423 -2.690573215484619
H 6.043948650360107 -1.2873759269714355 -3.6189956665039062
H 3.2100021839141846 0.4681607484817505 -3.870159149169922
H 5.560500144958496 -1.387247920036316 1.0890870094299316
H 2.7474160194396973 0.38654348254203796 0.8461437821388245
H 8.0147066116333 2.166400909423828 -0.9262681603431702
H 2.8032009601593018 4.91997766494751 -0.8941994905471802
H 5.417202472686768 5.482964992523193 -2.9345178604125977
H 4.895505428314209 7.689560413360596 2.111504316329956
H 9.539791107177734 6.420892715454102 -0.31084105372428894
H 8.235275268554688 3.5062735080718994 3.5081064701080322
H 4.894484996795654 3.455723285675049 3.8852014541625977
