13
Generated by QM7 dataset
O 2.226513147354126 -1.0264047384262085 -0.7731814384460449
C 4.404498100280762 -0.5319579243659973 -0.17723742127418518
C 5.434720039367676 2.041017532348633 -0.47938573360443115
C 7.823919773101807 2.5605223178863525 0.18152709305286407
C 9.04625129699707 5.0383687019348145 -0.03129386529326439
C 8.612143516540527 6.967268943786621 2.0222716331481934
O 11.023547172546387 5.792426109313965 1.6685526371002197
H 5.697675704956055 -1.9653908014297485 0.608945369720459
H 4.161139011383057 3.4472761154174805 -1.2492223978042603
H 9.01907730102539 1.069358229637146 0.9435024857521057
H 9.210392951965332 5.730783462524414 -1.9566035270690918
H 7.5502119064331055 6.444268703460693 3.6916933059692383
H 8.431013107299805 8.932791709899902 1.4818286895751953
