14
Generated by QM7 dataset
C 1.6650187969207764 0.11769214272499084 -0.018746083602309227
C 4.467501640319824 0.12304006516933441 -0.0004724315367639065
C 6.153628826141357 2.112165689468384 0.014891042374074459
C 8.70417308807373 1.2074782848358154 0.029234062880277634
C 11.01613998413086 2.8043346405029297 0.04849037155508995
N 8.977578163146973 -1.297202467918396 0.025586891919374466
S 6.148337364196777 -2.6353743076324463 0.003741657827049494
H 0.9236792325973511 2.049407958984375 -0.004667623434215784
H 0.9192194938659668 -0.8576710820198059 1.646745204925537
H 0.9418584108352661 -0.8248465657234192 -1.7128666639328003
H 5.609935283660889 4.083074569702148 0.015987083315849304
H 10.536243438720703 4.816401481628418 0.02252553589642048
H 12.187259674072266 2.40622615814209 -1.6101222038269043
H 12.136672019958496 2.4368019104003906 1.748544692993164
