18
Generated by QM7 dataset
C 1.7910823822021484 0.13305561244487762 0.16419830918312073
N 4.516596794128418 -0.18336012959480286 -0.0033259179908782244
C 5.80419921875 2.2656493186950684 -0.0022109795827418566
C 8.641698837280273 1.9411267042160034 -0.28283530473709106
C 9.758526802062988 2.346510648727417 -2.5325543880462646
C 10.206562042236328 1.275848627090454 1.88437819480896
C 9.402502059936523 0.7612761855125427 4.227128505706787
H 0.8732991218566895 -1.7185169458389282 0.06597033888101578
H 1.0544294118881226 1.2855995893478394 -1.3893266916275024
H 1.2526239156723022 0.9999485611915588 1.9641057252883911
H 4.959019184112549 -1.0984411239624023 -1.6399043798446655
H 5.383546352386475 3.317622184753418 1.734485149383545
H 5.083949089050293 3.428530216217041 -1.5622365474700928
H 8.664450645446777 2.8625948429107666 -4.189201354980469
H 11.783897399902344 2.153153896331787 -2.7977774143218994
H 12.238640785217285 1.187787413597107 1.5512384176254272
H 7.417931079864502 0.7601234316825867 4.742135524749756
H 10.743924140930176 0.28389355540275574 5.702342987060547
