16
Generated by QM7 dataset
N 1.7047030925750732 -0.5522535443305969 -1.1262956857681274
C 3.9222400188446045 -0.32858559489250183 0.4007542133331299
C 4.834429740905762 -2.8644089698791504 1.6227456331253052
C 7.306663990020752 -1.1325129270553589 1.740740180015564
C 6.4693074226379395 -0.5100748538970947 -1.0942081212997437
C 6.514188289642334 1.149180293083191 3.2413339614868164
C 4.211538314819336 1.6704233884811401 2.3073744773864746
H 0.10327353328466415 -0.8477689623832703 -0.10087358206510544
H 1.3633806705474854 1.0063170194625854 -2.202286720275879
H 4.9399518966674805 -4.548362731933594 0.42040738463401794
H 3.991328477859497 -3.3905844688415527 3.437959909439087
H 9.1434965133667 -1.9759165048599243 2.1154727935791016
H 7.209097385406494 1.2428350448608398 -1.909001350402832
H 6.6850385665893555 -2.035461902618408 -2.4795475006103516
H 7.560378551483154 2.1086130142211914 4.702148914337158
H 2.933062791824341 3.1651968955993652 2.8329830169677734
