17
Generated by QM7 dataset
C 3.7016711235046387 -0.2515603303909302 -3.0221445560455322
O 4.170682430267334 0.6820399761199951 -0.551800012588501
C 5.800098419189453 2.8145015239715576 -0.5463765263557434
C 4.3765869140625 5.219083309173584 -1.2412288188934326
C 5.639585494995117 7.183472633361816 0.3854474425315857
C 6.166100978851318 5.691080093383789 2.7600395679473877
O 6.815524101257324 3.197718858718872 1.9429408311843872
H 2.45210862159729 -1.890444278717041 -2.869586944580078
H 5.4652581214904785 -0.8554790019989014 -3.9176478385925293
H 2.7649528980255127 1.1765812635421753 -4.186801433563232
H 7.419045925140381 2.499767541885376 -1.8012869358062744
H 2.368828296661377 5.054450511932373 -0.7500889897346497
H 4.483847618103027 5.646218299865723 -3.261648416519165
H 7.4192914962768555 7.7795491218566895 -0.49132880568504333
H 4.477668285369873 8.857789039611816 0.7195888161659241
H 7.712935924530029 6.486636161804199 3.8752803802490234
H 4.483129501342773 5.558062553405762 3.9586548805236816
