13
Generated by QM7 dataset
O 1.744689702987671 0.08320464193820953 -0.3272060751914978
C 3.9647021293640137 0.4573137164115906 -0.039589762687683105
C 6.491416931152344 -0.8987348675727844 1.229984998703003
C 6.663703441619873 1.882847547531128 2.4840826988220215
C 6.091437816619873 2.7361721992492676 -0.3922126591205597
C 8.09929084777832 1.4703959226608276 -1.9205098152160645
C 8.353307723999023 -0.8374699354171753 -0.8898531198501587
H 6.303143501281738 -2.558462381362915 2.416449546813965
H 5.211770057678223 2.3507437705993652 3.8873746395111084
H 8.514917373657227 2.4220998287200928 3.2346065044403076
H 5.508362770080566 4.655548095703125 -0.8095020055770874
H 9.114810943603516 2.2589218616485596 -3.503873586654663
H 9.619915008544922 -2.334340810775757 -1.4509884119033813
