14
Generated by QM7 dataset
C 1.8046696186065674 -0.19934721291065216 -0.008050233125686646
C 4.568299770355225 0.16742973029613495 -0.00914627406746149
C 6.137150287628174 2.2430481910705566 -0.007993541657924652
N 5.4474568367004395 4.680794715881348 -0.004270780831575394
C 8.63907241821289 1.3306506872177124 -0.012623370625078678
C 8.450250625610352 -1.2626205682754517 -0.01577921397984028
O 5.987748622894287 -1.9894092082977295 -0.01345484983175993
H 0.8016596436500549 1.6082514524459839 0.01576031558215618
H 1.2204796075820923 -1.2775871753692627 1.6571764945983887
H 1.2143380641937256 -1.2373548746109009 -1.6964638233184814
H 6.719676971435547 6.114870548248291 0.03550795465707779
H 3.6154050827026367 5.2438578605651855 0.03892835974693298
H 10.373122215270996 2.4053757190704346 -0.014229637570679188
H 9.81574821472168 -2.7811100482940674 -0.01999330334365368
