16
Generated by QM7 dataset
C 3.3788869380950928 -2.0385608673095703 2.3623087406158447
C 3.9896087646484375 -0.6202648282051086 -0.06555459648370743
C 5.931207656860352 1.4808838367462158 0.3392247259616852
N 8.359430313110352 0.42641669511795044 1.0361368656158447
C 10.319038391113281 1.7698419094085693 2.016129970550537
N 10.297420501708984 3.9936904907226562 2.979682445526123
H 1.919035792350769 -3.4604287147521973 2.008174180984497
H 2.67760968208313 -0.7476134300231934 3.8169443607330322
H 5.0440192222595215 -3.0124125480651855 3.105330228805542
H 2.2444655895233154 0.21626025438308716 -0.8042863607406616
H 4.672876834869385 -1.9615734815597534 -1.489822268486023
H 5.236052989959717 2.773777723312378 1.8017971515655518
H 6.141855716705322 2.566437005996704 -1.412475824356079
H 8.863495826721191 -1.136386752128601 0.03955196961760521
H 12.11463737487793 0.7155070304870605 1.9490257501602173
H 8.509511947631836 4.7139787673950195 2.951223134994507
