15
Generated by QM7 dataset
O 5.545420169830322 -2.1313843727111816 -0.8985458612442017
C 4.386356830596924 0.07237651199102402 0.13966965675354004
C 6.251497745513916 2.2884204387664795 0.11338356882333755
C 5.296807765960693 4.542882919311523 1.5782992839813232
C 5.1166791915893555 6.558748245239258 0.047866761684417725
C 5.9023895263671875 5.8611369132995605 -2.4639194011688232
C 6.5699920654296875 3.417891025543213 -2.489222764968872
H 4.264053821563721 -3.448542356491089 -0.9130778908729553
H 3.8215930461883545 -0.37720823287963867 2.0803427696228027
H 2.678762435913086 0.49038392305374146 -0.9563148021697998
H 8.100273132324219 1.6907001733779907 0.8322542905807495
H 4.859317302703857 4.527065753936768 3.5721681118011475
H 4.5062031745910645 8.43157958984375 0.580108106136322
H 5.947535037994385 7.141445159912109 -4.051402568817139
H 7.25222110748291 2.375990390777588 -4.106525897979736
