17
Generated by QM7 dataset
C 4.3318190574646 -0.5563353896141052 -2.994081974029541
C 4.66435432434082 0.22073890268802643 -0.24946275353431702
C 5.995269775390625 2.7542381286621094 0.04663844034075737
C 4.564822673797607 5.001084804534912 -0.983451247215271
O 5.676113605499268 7.084847927093506 0.3189101815223694
C 6.4106879234313965 6.066493511199951 2.712399482727051
O 6.2569966316223145 3.367567539215088 2.6688225269317627
H 3.458860158920288 -2.427504301071167 -3.1024389266967773
H 6.1555562019348145 -0.6424313187599182 -3.9630959033966064
H 3.1146275997161865 0.7701200842857361 -4.007655620574951
H 5.751740455627441 -1.2344447374343872 0.7526023387908936
H 2.816939115524292 0.2757866382598877 0.6924334764480591
H 7.905423641204834 2.673055410385132 -0.7588006258010864
H 2.5533790588378906 4.943032264709473 -0.4983018934726715
H 4.769347667694092 5.24036169052124 -3.0248656272888184
H 8.353080749511719 6.641650199890137 3.126438617706299
H 5.157383918762207 6.79203462600708 4.18823766708374
