13
Generated by QM7 dataset
O 2.15279483795166 0.07449300587177277 -0.38911351561546326
N 4.756554126739502 -0.10057122260332108 -0.6188285946846008
C 6.068118572235107 -2.1881895065307617 0.14728525280952454
C 8.398452758789062 -1.5430936813354492 0.907295286655426
C 8.759182929992676 1.299432396888733 0.7721610069274902
C 6.101358890533447 2.0654895305633545 -0.07131826132535934
N 5.278477668762207 4.364624977111816 -0.17302332818508148
H 1.8733421564102173 1.887401819229126 -0.6556404829025269
H 5.179928302764893 -4.025268077850342 0.11236311495304108
H 9.807433128356934 -2.841127634048462 1.6103301048278809
H 9.194273948669434 2.112978458404541 2.6184611320495605
H 10.159753799438477 1.8428419828414917 -0.6429226398468018
H 6.685624122619629 5.587334156036377 0.3617502748966217
