16
Generated by QM7 dataset
N 1.9423550367355347 0.03754885867238045 0.14484751224517822
C 4.68682336807251 -0.015968184918165207 -0.09741538017988205
C 5.858963489532471 1.9700584411621094 1.6986747980117798
C 7.852170944213867 -0.07188518345355988 2.3740062713623047
C 5.796716213226318 -2.045609712600708 1.7140382528305054
N 6.920309543609619 -4.106564044952393 0.2604231536388397
H 1.0687912702560425 -1.4580371379852295 -0.696666419506073
H 1.1322860717773438 1.6181347370147705 -0.5965298414230347
H 5.415444850921631 0.035375673323869705 -2.0341200828552246
H 4.691472053527832 2.5331966876983643 3.318037748336792
H 6.60493278503418 3.670056104660034 0.7922109961509705
H 9.51097297668457 -0.028875015676021576 1.130094051361084
H 8.493657112121582 -0.0666695386171341 4.338376522064209
H 4.628317356109619 -2.6275508403778076 3.3215715885162354
H 7.985642433166504 -3.5503041744232178 -1.2432886362075806
H 5.610955715179443 -5.333166122436523 -0.4376605749130249
