19
Generated by QM7 dataset
O 4.388416290283203 -0.22869466245174408 -2.2433884143829346
C 3.734042167663574 1.0246284008026123 0.03940078988671303
C 4.934585094451904 3.6414077281951904 0.09798230230808258
C 7.825847148895264 3.518159866333008 0.0894218385219574
C 8.9866304397583 6.159637928009033 0.18874584138393402
C 11.862699508666992 6.056685447692871 0.14526325464248657
O 12.860852241516113 8.547798156738281 0.2716481387615204
H 3.566631317138672 -1.8720194101333618 -2.210204839706421
H 4.37581205368042 -0.1222463846206665 1.6374099254608154
H 1.673749327659607 1.1887133121490479 0.12390933930873871
H 4.283121109008789 4.6478190422058105 1.7855833768844604
H 4.306950569152832 4.715906143188477 -1.5584571361541748
H 8.486910820007324 2.5430233478546143 -1.6153568029403687
H 8.477784156799316 2.4129724502563477 1.7171562910079956
H 8.361225128173828 7.155428886413574 1.8967937231063843
H 8.313887596130371 7.297347545623779 -1.409017562866211
H 12.558874130249023 5.1583099365234375 -1.5830235481262207
H 12.586199760437012 4.996964931488037 1.7650609016418457
H 12.256102561950684 9.457984924316406 -1.2047760486602783
