17
Generated by QM7 dataset
O 3.151855230331421 -0.4585609436035156 -1.6977866888046265
C 5.327326774597168 0.10153498500585556 -0.21227294206619263
C 6.637795448303223 -2.050503969192505 1.0819249153137207
C 7.796896457672119 -0.8407013416290283 -1.2172482013702393
C 9.679706573486328 1.2729195356369019 -1.015973448753357
C 8.041748046875 3.6535019874572754 -0.8330668807029724
C 5.667591094970703 2.8009142875671387 0.5909173488616943
H 1.6176811456680298 -0.3515457510948181 -0.6934539079666138
H 5.847606182098389 -3.927701234817505 0.8646441698074341
H 7.5059733390808105 -1.7208412885665894 2.905548334121704
H 7.808499336242676 -1.825891137123108 -3.00532603263855
H 10.844571113586426 1.05025315284729 0.6819076538085938
H 10.930837631225586 1.3527982234954834 -2.66028094291687
H 9.011404991149902 5.223297595977783 0.09681066870689392
H 7.509469509124756 4.265773296356201 -2.7401974201202393
H 5.9648261070251465 2.913768768310547 2.63828444480896
H 4.041784286499023 3.9855268001556396 0.10741203278303146
