20
Generated by QM7 dataset
C 1.2673637866973877 0.9429166316986084 1.2362399101257324
C 3.533353328704834 0.41110992431640625 -0.4486587643623352
C 5.778253555297852 2.1340677738189697 0.06982538104057312
C 7.455366611480713 1.3549336194992065 2.2577691078186035
N 6.342884540557861 2.1741111278533936 4.632814884185791
C 7.098189353942871 3.2380456924438477 -2.234487771987915
C 5.5424346923828125 4.924550533294678 -0.5759696364402771
H -0.3076474070549011 -0.29477837681770325 0.7177746891975403
H 0.628749668598175 2.9014477729797363 1.0425996780395508
H 1.6965205669403076 0.6052414774894714 3.2295796871185303
H 2.925541639328003 0.61064612865448 -2.419529676437378
H 4.109908580780029 -1.56586492061615 -0.22374357283115387
H 9.34106731414795 2.1927247047424316 2.080758571624756
H 7.705906391143799 -0.6998978853225708 2.2723388671875
H 6.172355651855469 4.089877605438232 4.618622779846191
H 7.547018051147461 1.7496974468231201 6.071482181549072
H 6.3728556632995605 2.8049771785736084 -4.100063323974609
H 9.133122444152832 3.480799913406372 -2.1967499256134033
H 6.528342247009277 6.294602394104004 0.5846245884895325
H 3.7588541507720947 5.611579418182373 -1.3154383897781372
