17
Generated by QM7 dataset
O 1.7126587629318237 0.09520440548658371 -0.007313240319490433
C 4.39486026763916 -0.013492644764482975 0.02757110446691513
C 5.429788112640381 2.6695594787597656 -0.01712091825902462
C 8.314455032348633 2.6974895000457764 0.013813897967338562
C 9.340953826904297 5.396793365478516 -0.014550890773534775
C 12.119664192199707 5.405202388763428 0.003590479725971818
C 14.388601303100586 5.416106224060059 0.017234303057193756
H 1.102504014968872 -1.6381280422210693 0.024150699377059937
H 5.032624244689941 -1.0795060396194458 -1.6265439987182617
H 4.991484642028809 -1.0068082809448242 1.7411558628082275
H 4.683383941650391 3.7198503017425537 1.6073821783065796
H 4.7204413414001465 3.651007652282715 -1.7003567218780518
H 9.036765098571777 1.6547198295593262 -1.6273565292358398
H 9.0017671585083 1.704022765159607 1.6999598741531372
H 8.636256217956543 6.43464994430542 1.6341217756271362
H 8.658271789550781 6.39220666885376 -1.6978622674942017
H 16.402236938476562 5.427217960357666 0.028875015676021576
