14
Generated by QM7 dataset
O 1.3487164974212646 3.171508550643921 -0.8425155282020569
N 3.8393943309783936 2.8920369148254395 -1.6815160512924194
C 5.294426918029785 2.6078031063079834 0.2603286802768707
C 8.157002449035645 2.274266481399536 -0.06719866394996643
C 9.599204063415527 4.288166522979736 -1.5646743774414062
O 11.451834678649902 4.552860260009766 0.433257520198822
C 9.8722505569458 3.0884361267089844 2.1161341667175293
H 0.41793182492256165 3.3894505500793457 -2.419926643371582
H 4.546529769897461 2.6109211444854736 2.207540273666382
H 8.603677749633789 0.3548905551433563 -0.7189652323722839
H 8.60431957244873 6.070952892303467 -1.896472454071045
H 10.45651626586914 3.629105567932129 -3.3257856369018555
H 10.925564765930176 1.560592532157898 3.0256028175354004
H 9.00601863861084 4.291813850402832 3.5584676265716553
