14
Generated by QM7 dataset
C 0.04871714115142822 0.22410261631011963 0.856934130191803
C 2.8288633823394775 -0.4610931873321533 0.8696141839027405
O 4.199254989624023 1.4984205961227417 -0.37892788648605347
N 6.770775318145752 0.8464083075523376 -0.3855230212211609
C 8.011229515075684 2.609182596206665 -1.5041275024414062
C 10.672757148742676 2.1018102169036865 -1.604868769645691
C 12.902521133422852 1.6845396757125854 -1.6950654983520508
H -1.0737801790237427 -1.2308731079101562 1.8022129535675049
H -0.6385951638221741 0.44317856431007385 -1.0825674533843994
H -0.2605554461479187 2.033156394958496 1.8127386569976807
H 3.122356653213501 -2.2531583309173584 -0.12513767182826996
H 3.50642466545105 -0.6441698670387268 2.8174872398376465
H 7.223723888397217 4.349147796630859 -2.327537775039673
H 14.876453399658203 1.2953505516052246 -1.765212059020996
