16
Generated by QM7 dataset
C 3.4382433891296387 -1.3233562707901 -0.7032237648963928
C 6.26283597946167 -0.9541983008384705 -0.33948931097984314
C 6.924863815307617 1.824247121810913 0.05432962626218796
C 9.73208999633789 2.1165688037872314 0.5043867826461792
N 10.640594482421875 2.066472291946411 2.9038288593292236
N 11.308934211730957 2.3440539836883545 -1.3453716039657593
H 3.0090866088867188 -3.3257291316986084 -0.9904810786247253
H 2.760209560394287 -0.27710944414138794 -2.353276014328003
H 2.3878579139709473 -0.6738007664680481 0.9558423757553101
H 7.271382808685303 -1.6924387216567993 -1.9930564165115356
H 6.89564847946167 -2.0722548961639404 1.2870736122131348
H 5.902276039123535 2.5881876945495605 1.6852200031280518
H 6.3860650062561035 2.939998149871826 -1.6048877239227295
H 9.667725563049316 1.0499507188796997 4.198555946350098
H 12.539183616638184 1.8012113571166992 2.959689140319824
H 10.368946075439453 2.3409550189971924 -3.039870262145996
