15
Generated by QM7 dataset
C 1.876668095588684 -0.030349001288414 -0.3290013074874878
N 4.587253570556641 0.05455639213323593 0.13116589188575745
C 5.856922626495361 2.3220577239990234 0.3003719747066498
C 8.330460548400879 2.38515567779541 0.7958203554153442
C 9.797246932983398 -0.009750986471772194 1.1918691396713257
N 8.323280334472656 -2.366503953933716 0.9925219416618347
C 5.951598167419434 -2.1359195709228516 0.5051237940788269
H 1.1905652284622192 -1.9649372100830078 -0.5924480557441711
H 1.3983407020568848 1.0383288860321045 -2.0359530448913574
H 0.8542696237564087 0.7935526967048645 1.2710298299789429
H 4.742173194885254 4.0187482833862305 0.012150938622653484
H 9.331146240234375 4.167582988739014 0.9282901883125305
H 11.33280086517334 -0.08721086382865906 -0.19507643580436707
H 10.667315483093262 0.04883052408695221 3.0700113773345947
H 4.7968621253967285 -3.8639419078826904 0.3490702211856842
