17
Generated by QM7 dataset
C 1.8448829650878906 -0.37420356273651123 -0.48102977871894836
C 4.646590709686279 0.13360363245010376 0.018613802269101143
N 6.217614650726318 -1.3949391841888428 -1.6611826419830322
C 5.310564994812012 2.910461664199829 -0.21072335541248322
C 5.085536479949951 4.153409957885742 -2.760852098464966
C 6.080628395080566 4.251071453094482 1.807579755783081
H 0.6540908813476562 0.7749955654144287 0.763676106929779
H 1.3866243362426758 -2.3622331619262695 -0.12343691289424896
H 1.3110730648040771 0.04595813900232315 -2.436990737915039
H 5.049121379852295 -0.49730032682418823 1.9530508518218994
H 5.66498327255249 -1.1165825128555298 -3.482595205307007
H 5.8943772315979 -3.2572453022003174 -1.299262285232544
H 3.1509671211242676 4.014364242553711 -3.4768693447113037
H 6.3633880615234375 3.2717394828796387 -4.126859664916992
H 5.565772533416748 6.16593074798584 -2.6838457584381104
H 6.270167827606201 3.390244245529175 3.6607019901275635
H 6.567818641662598 6.238685131072998 1.6591606140136719
