14
Generated by QM7 dataset
C 1.3136998414993286 2.0231597423553467 0.9032135009765625
N 3.838865280151367 1.2400950193405151 0.21992632746696472
C 5.911743640899658 2.8005363941192627 0.236253559589386
N 5.733920574188232 5.236752510070801 0.03860710561275482
C 8.54564380645752 1.819881796836853 0.4730740487575531
C 9.180100440979004 -0.6245734095573425 0.601783275604248
H 0.040874775499105453 0.39527401328086853 0.8388872146606445
H 0.5856828093528748 3.4396984577178955 -0.4133586883544922
H 1.282670497894287 2.7910687923431396 2.8224194049835205
H 4.198763370513916 -0.5816577076911926 0.6805659532546997
H 3.886183977127075 5.73146390914917 -0.18530654907226562
H 9.996216773986816 3.2706246376037598 0.5261375308036804
H 7.8230695724487305 -2.1516611576080322 0.5281028747558594
H 11.156943321228027 -1.1505786180496216 0.7667374610900879
