17
Generated by QM7 dataset
C 2.3059194087982178 0.24077001214027405 -0.41864994168281555
N 5.031188011169434 0.10404831916093826 0.12183064222335815
C 5.962690830230713 -2.264080762863159 0.7389206886291504
N 8.216718673706055 -3.157600164413452 0.534490168094635
C 6.516115665435791 2.3043508529663086 -0.08715417236089706
C 8.737564086914062 2.599337100982666 1.6970118284225464
C 5.986690044403076 4.240696430206299 -1.6486537456512451
H 1.5087573528289795 2.057382583618164 0.17651931941509247
H 1.2456319332122803 -1.2248071432113647 0.5891032218933105
H 1.9745559692382812 -0.005669178441166878 -2.446722984313965
H 4.48488712310791 -3.5555007457733154 1.4454514980316162
H 9.340027809143066 -1.8165181875228882 -0.2807188034057617
H 8.292628288269043 1.8167449235916138 3.5604708194732666
H 9.218423843383789 4.592204570770264 1.9912043809890747
H 10.424957275390625 1.665680170059204 0.9571840763092041
H 4.4127373695373535 4.190978050231934 -2.9587252140045166
H 7.154729843139648 5.927844047546387 -1.696123719215393
