14
Generated by QM7 dataset
C 1.800757884979248 -0.04168735817074776 0.02235545963048935
C 4.06854248046875 -0.01332256942987442 0.02006889134645462
C 6.801918029785156 0.021372802555561066 0.010393493808805943
C 8.06357479095459 1.9933775663375854 1.7753788232803345
C 10.108901023864746 -0.009524219669401646 2.3253836631774902
C 8.114351272583008 -2.0249550342559814 1.64920175075531
H -0.21359574794769287 -0.06682071834802628 0.024906590580940247
H 7.581449031829834 0.09161392599344254 -1.9133855104446411
H 6.951433181762695 2.5155656337738037 3.4450273513793945
H 8.737885475158691 3.7175071239471436 0.8573687672615051
H 11.711577415466309 0.051910776644945145 1.0148396492004395
H 10.820836067199707 -0.061340510845184326 4.262957572937012
H 8.831295013427734 -3.6705284118652344 0.6254048347473145
H 7.017082214355469 -2.678781270980835 3.2819252014160156
