18
Generated by QM7 dataset
C 2.9230473041534424 -1.4490609169006348 0.9708846211433411
C 5.721221446990967 -1.3878904581069946 0.31320321559906006
N 6.61489200592041 1.230986475944519 0.3239557445049286
C 9.308300018310547 1.4277069568634033 -0.36299750208854675
C 9.912501335144043 4.173498153686523 -0.9929187893867493
C 11.025701522827148 0.6020100712776184 1.8046506643295288
O 10.317054748535156 0.17672719061374664 3.9744532108306885
H 2.2429537773132324 -3.4023008346557617 1.008622407913208
H 1.80525541305542 -0.4124516248703003 -0.42885443568229675
H 2.567911148071289 -0.6157483458518982 2.831697940826416
H 5.984327793121338 -2.2286484241485596 -1.5610271692276
H 6.758322238922119 -2.540963649749756 1.683953881263733
H 6.403790473937988 1.9363079071044922 2.114886999130249
H 9.727875709533691 0.2461368292570114 -2.0112733840942383
H 9.561920166015625 5.420036792755127 0.6248001456260681
H 8.770162582397461 4.842989921569824 -2.584105968475342
H 11.906729698181152 4.386470317840576 -1.5085872411727905
H 13.045138359069824 0.4370936453342438 1.3056496381759644
