16
Generated by QM7 dataset
C 2.5250141620635986 -0.7487850785255432 0.11402607709169388
C 5.303818702697754 -0.18173496425151825 0.5637620091438293
C 6.1442742347717285 2.1631696224212646 -0.8778911828994751
S 9.41094970703125 2.8337576389312744 -0.31178590655326843
N 9.869189262390137 5.365593910217285 -2.1624703407287598
O 9.74303150177002 3.7334563732147217 2.2423112392425537
O 10.963812828063965 0.8656835556030273 -1.3875125646591187
H 1.9669970273971558 -2.456303834915161 1.1390891075134277
H 2.1460108757019043 -1.0542593002319336 -1.8964914083480835
H 1.3355638980865479 0.8113161325454712 0.7700067162513733
H 6.437729835510254 -1.814023733139038 -0.02082478255033493
H 5.631572723388672 0.07528668642044067 2.5930821895599365
H 5.063615798950195 3.8228025436401367 -0.28047314286231995
H 5.917035102844238 1.8885166645050049 -2.9154317378997803
H 11.16675090789795 4.949665069580078 -3.531558036804199
H 10.358892440795898 6.889752388000488 -1.0831342935562134
