19
Generated by QM7 dataset
C 2.0015602111816406 -0.11780552566051483 0.10057122260332108
C 4.856218338012695 0.11028441786766052 0.04480540752410889
C 5.871700286865234 2.23488450050354 1.682687759399414
C 8.523175239562988 1.322543740272522 2.204214334487915
C 8.116108894348145 -1.503069281578064 2.5381855964660645
C 10.391716957092285 -3.07430100440979 1.784298300743103
O 5.988107681274414 -2.1748101711273193 0.9859645962715149
H 1.3841298818588257 -1.7194429636001587 -1.0577553510665894
H 1.100425362586975 1.6014294624328613 -0.6128193140029907
H 1.3204083442687988 -0.48019829392433167 2.020230531692505
H 5.499122142791748 0.34455376863479614 -1.9123839139938354
H 4.819822311401367 2.3730990886688232 3.462960958480835
H 5.807733058929443 4.074344158172607 0.7446843981742859
H 9.73071002960205 1.7150588035583496 0.5665965676307678
H 9.383397102355957 2.20803165435791 3.8628647327423096
H 7.594903945922852 -1.9227774143218994 4.4994001388549805
H 10.83931827545166 -2.815389633178711 -0.22194834053516388
H 9.99194622039795 -5.088711261749268 2.0417356491088867
H 12.054034233093262 -2.578474521636963 2.907060146331787
