15
Generated by QM7 dataset
N 1.9962310791015625 -0.002664513885974884 0.5244367718696594
C 4.663749694824219 0.07067576050758362 -0.22032317519187927
C 6.120634078979492 1.992413878440857 1.420393705368042
N 7.908900737762451 -0.049699798226356506 1.872472882270813
C 6.144293308258057 -2.0314178466796875 1.1562856435775757
C 9.839237213134766 -0.12086687982082367 3.570448637008667
O 10.828225135803223 1.7204066514968872 4.559758186340332
H 1.0034445524215698 -1.4384028911590576 -0.29226505756378174
H 1.03075110912323 1.6095175743103027 0.09250209480524063
H 5.0137834548950195 0.21287764608860016 -2.2546889781951904
H 5.208784580230713 2.6479408740997314 3.1584503650665283
H 6.933046340942383 3.58632230758667 0.38854658603668213
H 6.972862720489502 -3.468327760696411 -0.07394498586654663
H 5.243555545806885 -2.919154405593872 2.794167995452881
H 10.461372375488281 -2.066887855529785 3.9794609546661377
