10
Generated by QM7 dataset
O 4.359938144683838 0.03991101682186127 -2.1855437755584717
C 4.247027397155762 0.6938129663467407 0.030915919691324234
N 5.429202079772949 2.7610220909118652 1.1301506757736206
C 7.915590286254883 3.4950673580169678 0.3320815861225128
C 5.6809892654418945 5.082342624664307 -0.2504642903804779
H 3.135301351547241 -0.3509410321712494 1.4500057697296143
H 8.740607261657715 2.356356143951416 -1.1536588668823242
H 9.14317512512207 4.023037910461426 1.8760823011398315
H 5.3119635581970215 6.744035720825195 0.8774943351745605
H 4.920336723327637 5.069662570953369 -2.1494123935699463
