19
Generated by QM7 dataset
C 1.898777961730957 -0.5960574150085449 0.4682174324989319
C 4.562441349029541 0.20594234764575958 -0.34712380170822144
C 5.636958599090576 -1.7304600477218628 -2.21022367477417
C 4.733896255493164 2.869927167892456 -1.4434484243392944
C 2.8106274604797363 4.056391716003418 -2.609239339828491
C 7.259288311004639 4.165542125701904 -1.153205394744873
O 7.721685409545898 4.631567478179932 1.4481348991394043
H 1.066693663597107 0.7923243641853333 1.7586547136306763
H 1.967677354812622 -2.409703254699707 1.4653503894805908
H 0.6290898323059082 -0.830251157283783 -1.1493502855300903
H 5.723413467407227 0.14662384986877441 1.371752142906189
H 4.554466724395752 -1.759656310081482 -3.9755492210388184
H 5.581325054168701 -3.6349449157714844 -1.400305986404419
H 7.608887672424316 -1.3148714303970337 -2.6806142330169678
H 0.9777064919471741 3.177669048309326 -2.875199317932129
H 3.0204060077667236 5.95339298248291 -3.366112470626831
H 7.323973655700684 5.980113983154297 -2.146615505218506
H 8.789702415466309 2.9939119815826416 -1.9000251293182373
H 6.184695720672607 5.374853610992432 2.1276426315307617
