18
Generated by QM7 dataset
C 1.8486435413360596 0.030934816226363182 -0.01795239746570587
C 4.762109756469727 0.0 0.0
C 5.655893802642822 -1.3627004623413086 2.4095709323883057
C 5.68168830871582 -1.4283117055892944 -2.403599262237549
N 8.42827320098877 -1.76764976978302 -2.572503089904785
C 5.672995567321777 2.5722384452819824 0.0
C 6.423746109008789 4.692322254180908 0.0
H 1.1162612438201904 0.9844906330108643 -1.7047408819198608
H 1.093924641609192 1.0321117639541626 1.6311360597610474
H 1.0796194076538086 -1.8907465934753418 0.005555795039981604
H 4.905521392822266 -0.4469958245754242 4.110400199890137
H 7.7197771072387695 -1.3515321016311646 2.581460475921631
H 5.026784896850586 -3.335026502609253 2.4283547401428223
H 5.05325984954834 -0.4158153533935547 -4.101612567901611
H 4.812168598175049 -3.3084380626678467 -2.4699666500091553
H 9.282051086425781 -0.04166845977306366 -2.4620864391326904
H 8.875457763671875 -2.4795851707458496 -4.304682731628418
H 7.0945611000061035 6.591308116912842 0.010733644478023052
