19
Generated by QM7 dataset
C 4.362716197967529 0.4359787106513977 -1.328005075454712
N 6.5802154541015625 1.9196215867996216 -1.9802628755569458
C 8.570172309875488 1.6200244426727295 -0.08639828115701675
C 10.803337097167969 3.2887094020843506 -0.7218942642211914
C 12.850005149841309 2.346057176589966 -1.9079241752624512
C 10.687119483947754 6.000277519226074 0.12876594066619873
N 8.630341529846191 7.368930339813232 -1.0878019332885742
H 2.9279415607452393 0.6663174629211426 -2.7962467670440674
H 3.5414412021636963 1.0444705486297607 0.46857649087905884
H 4.817837715148926 -1.5781291723251343 -1.2157741785049438
H 6.118782043457031 3.800598382949829 -2.0060577392578125
H 9.169612884521484 -0.3634321391582489 -0.012113144621253014
H 7.878117084503174 2.10581636428833 1.8083544969558716
H 12.911497116088867 0.3827640414237976 -2.5044729709625244
H 14.474981307983398 3.515646457672119 -2.3498177528381348
H 12.468167304992676 6.976944446563721 -0.2791881263256073
H 10.434123039245605 6.063413143157959 2.1839754581451416
H 8.937762260437012 7.326619625091553 -2.991342067718506
H 8.73754596710205 9.221882820129395 -0.5786530375480652
