19
Generated by QM7 dataset
C 2.209959030151367 -0.8178167939186096 -0.41704365611076355
C 5.0337958335876465 -0.5743255615234375 -0.9235091805458069
O 5.378538608551025 0.000944863073527813 -3.5374162197113037
C 6.225513935089111 1.4871388673782349 0.732420027256012
C 9.045702934265137 1.6039994955062866 0.41475710272789
C 10.691919326782227 2.4556801319122314 2.5766794681549072
C 10.739748001098633 -0.26015859842300415 1.7407212257385254
H 1.8367948532104492 -1.2997158765792847 1.5588350296020508
H 1.3871723413467407 -2.286341905593872 -1.6213661432266235
H 1.2207252979278564 0.9436914324760437 -0.8688771724700928
H 5.950577735900879 -2.394169569015503 -0.5679571628570557
H 4.646175384521484 1.657686710357666 -3.8538129329681396
H 5.745580196380615 1.14451265335083 2.719712734222412
H 5.452540397644043 3.3405444622039795 0.22024758160114288
H 9.583405494689941 2.1896822452545166 -1.4757249355316162
H 9.820207595825195 2.880849599838257 4.381405830383301
H 12.319578170776367 3.621622323989868 2.141040802001953
H 12.3922758102417 -0.9271941184997559 0.7275256514549255
H 9.892621994018555 -1.6621274948120117 2.969496726989746
