19
Generated by QM7 dataset
C 6.535882472991943 -2.4860291481018066 -1.339948058128357
O 8.056166648864746 -0.6157105565071106 -0.15401268005371094
C 7.0933518409729 1.8755531311035156 -0.59363853931427
C 8.791459083557129 3.8022613525390625 0.7788317203521729
N 11.46837043762207 3.576854705810547 -0.026966391131281853
C 7.812770366668701 6.522502899169922 0.36645570397377014
N 9.586731910705566 8.403234481811523 1.3712419271469116
H 7.35211181640625 -4.340587615966797 -0.9357168078422546
H 6.512355327606201 -2.2061607837677 -3.3886756896972656
H 4.609042167663574 -2.4347987174987793 -0.5908984541893005
H 5.157894134521484 2.001673460006714 0.1357012391090393
H 7.069314479827881 2.2482638359069824 -2.6321239471435547
H 8.76441764831543 3.374805212020874 2.8077173233032227
H 11.570377349853516 3.8980515003204346 -1.9248372316360474
H 11.933337211608887 1.7065550088882446 0.171946182847023
H 5.965279579162598 6.767184734344482 1.2670425176620483
H 7.570413112640381 6.890829563140869 -1.6580268144607544
H 11.347900390625 7.826206207275391 0.7910204529762268
H 9.681539535522461 8.18655776977539 3.285118818283081
