17
Generated by QM7 dataset
C 10.72402572631836 1.9121571779251099 3.5090513229370117
O 8.580187797546387 3.50844669342041 3.8199303150177
C 7.2864813804626465 3.950812578201294 1.4956048727035522
C 4.681626319885254 4.9947919845581055 2.136505365371704
C 8.690605163574219 5.898931503295898 -0.1509135216474533
N 8.454578399658203 5.85270881652832 -2.714024782180786
N 10.07766342163086 7.645850658416748 0.8626222014427185
H 11.605318069458008 1.650260090827942 5.359414577484131
H 12.112558364868164 2.767314910888672 2.2392876148223877
H 10.147772789001465 0.060924772173166275 2.790142774581909
H 7.068955421447754 2.18229341506958 0.43805742263793945
H 4.831519603729248 6.728483200073242 3.2598342895507812
H 3.6183531284332275 3.6328284740448 3.275707960128784
H 3.5951473712921143 5.423759460449219 0.42968592047691345
H 6.795644283294678 5.23582649230957 -3.438753604888916
H 9.09591293334961 7.475152015686035 -3.5146448612213135
H 10.046483039855957 7.374297142028809 2.7955851554870605
