18
Generated by QM7 dataset
C 2.2365853786468506 0.2446628361940384 0.31834325194358826
N 4.922793388366699 -0.05945078283548355 -0.2656199038028717
C 5.236846923828125 -1.4458105564117432 -2.640230894088745
C 6.245129108428955 2.398383617401123 -0.33941370248794556
C 7.222627639770508 3.5077285766601562 2.0896403789520264
C 9.051674842834473 2.512598752975464 0.16759981215000153
O 10.451753616333008 4.351661205291748 -1.2554962635040283
H 1.9956642389297485 1.1997871398925781 2.13875412940979
H 1.311356544494629 -1.5992562770843506 0.4839588701725006
H 1.2488255500793457 1.350417137145996 -1.12688148021698
H 4.34553861618042 -3.3099308013916016 -2.5207624435424805
H 7.243452548980713 -1.7678766250610352 -3.032273530960083
H 4.419918060302734 -0.42615213990211487 -4.24644136428833
H 5.519644260406494 3.7255005836486816 -1.7334835529327393
H 6.989643573760986 2.4247453212738037 3.813127279281616
H 7.058032512664795 5.5280537605285645 2.353389263153076
H 10.005230903625488 0.7479724884033203 0.6005738377571106
H 9.756051063537598 6.042701721191406 -1.0901830196380615
