14
Generated by QM7 dataset
C -2.114471197128296 -0.0032881235238164663 -1.9234389066696167
C -1.0490814447402954 1.8876663446426392 0.06768999248743057
C -1.9880863428115845 -0.07492764294147491 2.0515623092651367
C -1.0732510089874268 -1.9833053350448608 -0.0024188493844121695
C 1.856240153312683 -2.0953094959259033 -0.09645162522792816
N 3.157203197479248 -0.0223365630954504 -0.10049563646316528
O 1.6843129396438599 2.2521378993988037 -0.01307690516114235
H -4.1712870597839355 0.015722520649433136 -2.162186861038208
H -1.211824655532837 0.029158474877476692 -3.781228542327881
H -2.0117456912994385 3.7152960300445557 0.13114699721336365
H -0.9693161249160767 -0.10945294052362442 3.848710775375366
H -4.025796890258789 -0.06772778183221817 2.4213061332702637
H -1.9937933683395386 -3.829699993133545 -0.006500658113509417
H 2.7841525077819824 -3.9556503295898438 -0.15905824303627014
