15
Generated by QM7 dataset
C 1.7444628477096558 0.034015070647001266 0.347388356924057
C 4.603637218475342 0.05423514172434807 -0.04159287363290787
N 5.253363132476807 2.2335240840911865 -1.6317596435546875
N 7.4363179206848145 2.3130247592926025 -2.9813830852508545
C 8.286355018615723 0.13511541485786438 -3.721796751022339
C 7.217355251312256 -2.3702645301818848 -3.082955837249756
C 5.486252784729004 -2.3709449768066406 -1.238167405128479
H 1.1066992282867432 1.7806133031845093 1.2595024108886719
H 1.1752963066101074 -1.5453424453735352 1.5601011514663696
H 0.7289429306983948 -0.15461739897727966 -1.4488152265548706
H 5.535121440887451 0.24573998153209686 1.7993404865264893
H 4.947473049163818 3.8939507007598877 -0.7021466493606567
H 10.001243591308594 0.08592584729194641 -4.900834560394287
H 7.938436985015869 -4.042917728424072 -3.998924970626831
H 4.707024574279785 -4.1436967849731445 -0.5589810013771057
