16
Generated by QM7 dataset
C 1.773470163345337 0.08558569848537445 0.0809369683265686
N 4.509548187255859 0.1963803470134735 0.13513430953025818
C 5.929148197174072 -2.172032356262207 -0.05196746811270714
C 6.32961893081665 -3.0452558994293213 -2.787742853164673
O 7.922053337097168 -1.3968855142593384 -4.203658103942871
C 5.7513813972473145 2.4629557132720947 -0.2124619036912918
O 8.013289451599121 2.66247296333313 -0.6621411442756653
H 0.9526865482330322 1.9700772762298584 0.2969704568386078
H 1.1152408123016357 -1.1246516704559326 1.6209125518798828
H 1.167737364768982 -0.6992742419242859 -1.7321418523788452
H 4.920260906219482 -3.6190524101257324 1.02903151512146
H 7.775259494781494 -1.8793892860412598 0.8411359786987305
H 4.526385307312012 -3.2002322673797607 -3.7883338928222656
H 7.222968101501465 -4.910661220550537 -2.7918813228607178
H 8.396261215209961 0.03424183651804924 -3.125833749771118
H 4.503387451171875 4.125309944152832 -0.056710682809352875
