14
Generated by QM7 dataset
C 1.3292711973190308 2.2219021320343018 -0.4630962908267975
C -1.39826500415802 2.2183306217193604 0.4873603582382202
O -2.7046515941619873 0.004384164698421955 -0.3762255907058716
C -1.4012318849563599 -2.2244155406951904 0.4581640958786011
C 1.3256995677947998 -2.2199747562408447 -0.4917067289352417
O 2.6315948963165283 -0.0067085279151797295 0.3710666298866272
H 1.3909707069396973 2.282600164413452 -2.533064603805542
H 2.345414638519287 3.8685338497161865 0.2657899856567383
H -2.410856008529663 3.8749778270721436 -0.22075781226158142
H -1.459341049194336 2.252213478088379 2.557366371154785
H -1.4634795188903809 -2.284792184829712 2.5283591747283936
H -2.418055772781372 -3.8708584308624268 -0.2705898880958557
H 2.337799072265625 -3.8778882026672363 0.2150508314371109
H 1.3863976001739502 -2.2543675899505615 -2.5619583129882812
