12
Generated by QM7 dataset
C 1.8210535049438477 -0.029782084748148918 -0.011905274353921413
C 4.657986164093018 -0.05251548811793327 -0.005366822239011526
C 5.949746131896973 -2.2342042922973633 0.003930630162358284
C 6.012390613555908 2.277573585510254 -0.005555795039981604
C 7.146339416503906 4.243682384490967 -0.0040818084962666035
C 8.593832015991211 6.7528605461120605 -0.0010015548905357718
N 9.687567710876465 8.6533203125 0.0015684727113693953
H 1.0781077146530151 1.9022738933563232 0.019426384940743446
H 1.0791281461715698 -1.0105876922607422 1.6527355909347534
H 1.0890302658081055 -0.9540282487869263 -1.7128099203109741
H 4.980581283569336 -4.0429368019104 0.0049510826356709
H 8.002007484436035 -2.2808048725128174 0.009750986471772194
