11
Generated by QM7 dataset
C 5.330085754394531 -2.012709617614746 0.7224233746528625
C 4.274711608886719 0.23313550651073456 0.20599904656410217
C 5.569911003112793 2.600867986679077 0.022960172966122627
N 4.390911102294922 4.774014949798584 -0.5004183650016785
S 6.595805644989014 7.028590679168701 -0.5288776755332947
C 8.98273754119873 4.958547115325928 0.1593606024980545
N 8.17656135559082 2.6206722259521484 0.41105324029922485
H 4.187614440917969 -3.7106850147247314 0.8216150999069214
H 7.346858501434326 -2.1971468925476074 1.0545238256454468
H 2.246506452560425 0.30156248807907104 -0.10932065546512604
H 10.937905311584473 5.511953353881836 0.36460375785827637
