13
Generated by QM7 dataset
C 2.2048001289367676 0.3851450979709625 1.9028974771499634
C 3.7336642742156982 0.6358928680419922 -0.09747207164764404
C 5.85567569732666 2.476334810256958 -0.1399153172969818
C 5.146914958953857 5.196274280548096 -0.8356180191040039
C 6.3577189445495605 5.7922563552856445 1.7306678295135498
O 6.805886268615723 7.6490068435668945 2.984198808670044
O 6.828204154968262 3.334629535675049 2.2899322509765625
H 0.675955057144165 -0.9849252700805664 1.884208083152771
H 2.432039737701416 1.5004992485046387 3.611739158630371
H 3.4537956714630127 -0.5323169827461243 -1.7604310512542725
H 7.42014217376709 1.7416660785675049 -1.2885853052139282
H 3.1376633644104004 5.662281036376953 -0.9244162440299988
H 6.155215740203857 5.994626998901367 -2.448272466659546
