11
Generated by QM7 dataset
C 1.9703418016433716 0.009883267804980278 -0.2243860810995102
C 4.233988285064697 0.04588254913687706 -0.08322353661060333
C 6.937052249908447 0.08552900701761246 0.08904389292001724
N 8.400191307067871 -1.2993946075439453 -1.7980365753173828
C 8.429010391235352 1.4728525876998901 -1.9131776094436646
C 10.627762794494629 2.8609509468078613 -1.1326640844345093
N 12.37275505065918 4.028707027435303 -0.4994357228279114
H -0.040874775499105453 -0.02885611727833748 -0.33686259388923645
H 7.713918685913086 0.014475301839411259 1.9885021448135376
H 7.230111122131348 -2.0265800952911377 -3.148472785949707
H 7.407537460327148 2.2879292964935303 -3.4923651218414307
