12
Generated by QM7 dataset
C 1.8022695779800415 -0.015061117708683014 0.01585480198264122
C 4.624745845794678 -0.0011905274586752057 0.024490850046277046
C 5.999464511871338 2.1283228397369385 -0.022884583100676537
C 8.822261810302734 2.187112331390381 -0.01755555532872677
H 1.1087778806686401 -1.961592435836792 -0.08730534464120865
H 1.059871792793274 1.0058444738388062 -1.6225377321243286
H 1.058152198791504 0.8318196535110474 1.7495273351669312
H 5.561634063720703 -1.8301808834075928 0.0708269327878952
H 5.050047397613525 3.951587438583374 -0.06370266526937485
H 9.64410400390625 0.28865566849708557 0.004308575764298439
H 9.502185821533203 3.204540967941284 1.6486537456512451
H 9.508289337158203 3.1671054363250732 -1.7043628692626953
