17
Generated by QM7 dataset
C 1.8664824962615967 -0.01602487824857235 0.07129936665296555
C 4.728963851928711 0.05000215396285057 -0.011735199019312859
C 5.858321189880371 2.139850378036499 1.633630394935608
C 8.511175155639648 1.1962532997131348 2.23518705368042
C 8.169248580932617 -1.6099900007247925 2.7841713428497314
C 5.943169593811035 -2.2740397453308105 1.1351585388183594
O 5.220821857452393 -4.442519187927246 0.7721232175827026
H 1.1366513967514038 -1.5518052577972412 -1.1097038984298706
H 1.0684133768081665 1.7627553939819336 -0.6210395693778992
H 1.1685688495635986 -0.3363901376724243 1.9951350688934326
H 5.406260967254639 0.22737184166908264 -1.959891676902771
H 4.783501625061035 2.3746488094329834 3.391359329223633
H 5.889274597167969 3.962982416152954 0.6569066047668457
H 9.742898941040039 1.4535962343215942 0.5880827903747559
H 9.3615140914917 2.202664852142334 3.8291709423065186
H 9.84074878692627 -2.702214002609253 2.264345407485962
H 7.661705493927002 -1.9341535568237305 4.762450218200684
