16
Generated by QM7 dataset
C 1.889726161956787 0.0 0.0
C 4.618490695953369 0.0 0.0
C 6.86756706237793 0.0 0.0
C 9.596331596374512 0.0 0.0
C 10.616103172302246 -1.4322044849395752 -2.2913496494293213
C 10.61461067199707 2.699965000152588 0.03337256237864494
H 1.1451929807662964 1.9291836023330688 0.02201530896127224
H 1.1450417041778564 -0.9836780428886414 1.6596330404281616
H 1.1451929807662964 -0.9454299807548523 -1.6817806959152222
H 10.27444076538086 -0.9600375890731812 1.707688808441162
H 10.01021957397461 -0.5542377829551697 -4.066312789916992
H 9.942869186401367 -3.3898284435272217 -2.3000991344451904
H 12.684597969055176 -1.4736273288726807 -2.271224021911621
H 10.012638092041016 3.762010097503662 -1.6413404941558838
H 12.684711456298828 2.707240581512451 0.08375266194343567
H 9.938334465026855 3.7285242080688477 1.7003945112228394
