15
Generated by QM7 dataset
C 1.5418843030929565 4.081676006317139 -1.1987289190292358
N 3.917496681213379 3.0219366550445557 -0.279792845249176
C 5.814611911773682 4.5341901779174805 -0.43393781781196594
C 8.34293270111084 3.75673770904541 0.44126996397972107
C 10.265578269958496 5.391672134399414 0.32268962264060974
N 12.711658477783203 4.964026927947998 1.0725140571594238
O 14.5889310836792 6.502112865447998 0.06980648636817932
H -0.013643822632730007 3.3538103103637695 -0.045844756066799164
H 1.2160576581954956 3.49862003326416 -3.1559371948242188
H 1.4701124429702759 6.148941993713379 -1.092639684677124
H 5.659162998199463 6.463146686553955 -1.2181930541992188
H 8.531867980957031 1.8571661710739136 1.176675796508789
H 10.000373840332031 7.292755603790283 -0.41279178857803345
H 13.20234489440918 3.0976579189300537 1.185179591178894
H 14.897335052490234 7.720438480377197 1.4212251901626587
