14
Generated by QM7 dataset
C 1.755706787109375 -0.029290754348039627 -0.25940269231796265
C 4.545226097106934 -0.11209855228662491 0.11402607709169388
O 5.317519187927246 -0.3279430866241455 2.7092437744140625
C 6.214780330657959 -1.4064853191375732 -1.7834668159484863
C 6.288233757019043 1.424154281616211 -1.544907808303833
O 8.459547996520996 2.4470252990722656 -0.26533645391464233
H 1.2434965372085571 0.09762325137853622 -2.2585251331329346
H 0.953442394733429 1.6108025312423706 0.7135227918624878
H 0.8799698948860168 -1.7339937686920166 0.519806981086731
H 6.637644290924072 0.9212982058525085 3.044046401977539
H 5.347055912017822 -2.200869560241699 -3.4560635089874268
H 7.793476104736328 -2.4985580444335938 -1.0717015266418457
H 5.455771446228027 2.5324597358703613 -3.0590131282806396
H 10.01490592956543 1.8850017786026 -1.074479341506958
