14
Generated by QM7 dataset
C 1.850854516029358 -0.12602584064006805 0.2691914737224579
N 4.596116542816162 0.0809747651219368 0.32242506742477417
C 5.9587788581848145 -2.2917654514312744 -0.07241430878639221
C 5.775002956390381 2.379051923751831 -0.10391604155302048
N 4.7768874168396 4.59989595413208 -0.09227532893419266
C 8.48585319519043 2.5072319507598877 -0.6511618494987488
N 10.638534545898438 2.479245185852051 -1.0912412405014038
H 0.9877031445503235 1.2055318355560303 1.5967429876327515
H 1.2081208229064941 -2.014183521270752 0.8219174742698669
H 1.1373695135116577 0.26527974009513855 -1.633063554763794
H 4.90640926361084 -3.9052512645721436 0.6851202249526978
H 7.784802436828613 -2.273850679397583 0.90083247423172
H 6.270867347717285 -2.6147005558013916 -2.092210292816162
H 2.9007296562194824 4.484830379486084 0.32346442341804504
