17
Generated by QM7 dataset
C 2.5869784355163574 -0.09167061746120453 -0.9666327238082886
C 5.32961368560791 -0.37144458293914795 -0.16765649616718292
N 6.625587463378906 2.0169804096221924 -0.3743358552455902
C 9.115415573120117 2.4875597953796387 0.13959406316280365
N 10.709248542785645 0.8398698568344116 0.9723774790763855
C 10.05748176574707 5.190378665924072 -0.3349161744117737
O 8.053389549255371 6.947237968444824 0.03821026161313057
H 1.5950989723205566 -1.8962645530700684 -0.7834237813949585
H 2.449387311935425 0.5261375308036804 -2.9363887310028076
H 1.6114639043807983 1.306688904762268 0.20518645644187927
H 6.253368377685547 -1.784468412399292 -1.3675380945205688
H 5.4069600105285645 -1.0433933734893799 1.7897406816482544
H 5.634369850158691 3.5138134956359863 -1.0745171308517456
H 9.825177192687988 -0.8609592318534851 1.185727596282959
H 10.703598022460938 5.331068515777588 -2.2936928272247314
H 11.621702194213867 5.650280952453613 0.9349420070648193
H 7.660080432891846 6.862994194030762 1.8343383073806763
