14
Generated by QM7 dataset
C 1.870942234992981 0.5444111824035645 -0.9467905759811401
C 4.3310065269470215 0.019369693472981453 0.3447238504886627
N 6.166119575500488 1.6322886943817139 0.2278064787387848
N 8.212125778198242 0.8171742558479309 1.5052613019943237
C 10.428982734680176 1.8044239282608032 0.17561225593090057
C 9.469001770019531 3.064814567565918 2.517908811569214
H 1.5029937028884888 -0.9572785496711731 -2.3138184547424316
H 1.9148595333099365 2.368809461593628 -1.9119492769241333
H 0.3641691207885742 0.5398947596549988 0.46430569887161255
H 4.481202125549316 -1.7889281511306763 1.3801237344741821
H 10.146355628967285 2.7297282218933105 -1.62875497341156
H 12.117415428161621 0.6596844792366028 0.3161889910697937
H 10.50073528289795 2.782149314880371 4.260406494140625
H 8.51675033569336 4.869295120239258 2.3471531867980957
