17
Generated by QM7 dataset
C 1.8207132816314697 -0.41373664140701294 -0.18313336372375488
C 4.610799312591553 -0.1028200015425682 -0.12698960304260254
O 5.8653130531311035 -0.7432292699813843 -2.4386348724365234
C 5.891391277313232 1.876857042312622 -1.7268128395080566
C 8.440291404724121 2.8904683589935303 -1.0305243730545044
C 8.388833999633789 4.656436443328857 1.195762038230896
C 9.652929306030273 4.256324768066406 3.3504087924957275
H 0.9293106198310852 0.9095441102981567 1.1339302062988281
H 1.3058385848999023 -2.3353612422943115 0.3860710561275482
H 1.0369871854782104 -0.07092142105102539 -2.0687966346740723
H 5.460892677307129 -0.6676024198532104 1.642134189605713
H 4.754739761352539 3.185624837875366 -2.8096446990966797
H 9.202531814575195 3.922126531600952 -2.658391237258911
H 9.756485939025879 1.3263609409332275 -0.6742731928825378
H 7.247439861297607 6.354940891265869 1.0078476667404175
H 10.821422576904297 2.591324806213379 3.6231908798217773
H 9.545441627502441 5.598389148712158 4.89970064163208
