15
Generated by QM7 dataset
C 1.518017053604126 2.551300287246704 -1.209027886390686
C -0.6172034740447998 1.8360579013824463 0.5257595777511597
C -2.6092581748962402 0.00910848006606102 -0.31741729378700256
C -1.3967721462249756 -2.5975420475006104 0.06793565303087234
N 1.3554627895355225 -2.2175180912017822 -0.156828373670578
C 1.8322029113769531 0.4105429947376251 0.6141232252120972
H 1.366819977760315 2.1087076663970947 -3.2028589248657227
H 2.5260725021362305 4.290415287017822 -0.8197064995765686
H -1.1254452466964722 3.0260751247406006 2.1013755798339844
H -4.341381072998047 0.197325199842453 0.796462893486023
H -3.0699167251586914 0.31989285349845886 -2.312495708465576
H -1.8279131650924683 -3.280545711517334 1.9768425226211548
H -2.092210292816162 -3.9888906478881836 -1.2925348281860352
H 2.277989149093628 -3.4835588932037354 0.9640060067176819
H 3.0672333240509033 0.694871187210083 2.2260217666625977
