13
Generated by QM7 dataset
C 1.8585267066955566 0.03255997970700264 -0.015004425309598446
N 4.589332103729248 0.0071053700521588326 -0.000944863073527813
C 6.117648124694824 2.094024419784546 0.00729434285312891
C 8.58918285369873 1.2729005813598633 0.01999330334365368
C 8.54294204711914 -1.4014397859573364 0.019256308674812317
C 6.044232368469238 -2.134596824645996 0.0061227125115692616
H 1.1854251623153687 1.9838533401489258 0.004346370231360197
H 1.191585659980774 -0.9599619507789612 1.6675132513046265
H 1.2102750539779663 -0.9207501411437988 -1.7272286415100098
H 5.341273307800293 3.9855079650878906 0.0035148905590176582
H 10.245376586914062 2.4720263481140137 0.02876163087785244
H 10.156238555908203 -2.6577296257019043 0.027363235130906105
H 5.196028709411621 -3.9948432445526123 0.0013039109762758017
