12
Generated by QM7 dataset
C 5.071174621582031 -2.0768656730651855 0.7668319940567017
C 4.09726619720459 0.21735629439353943 0.31503623723983765
C 5.522100925445557 2.50048565864563 0.13982084393501282
C 4.485095024108887 4.845919132232666 -0.32677143812179565
S 6.8337788581848145 7.083978652954102 -0.3894347548484802
C 9.009325981140137 4.754003047943115 0.20535653829574585
N 8.113293647766113 2.4484236240386963 0.4445013701915741
H 3.868307113647461 -3.7319257259368896 0.8743762969970703
H 7.088627338409424 -2.3437328338623047 1.0376486778259277
H 2.0632030963897705 0.35628896951675415 0.06130271404981613
H 2.530456781387329 5.353310585021973 -0.6260095834732056
H 11.003724098205566 5.171632289886475 0.3719925880432129
