22
Generated by QM7 dataset
C 2.347587823867798 -0.722007691860199 -0.29657360911369324
N 5.048327922821045 -0.20089678466320038 -0.1939803808927536
C 5.534780979156494 2.522500991821289 -0.1567527800798416
C 8.39038372039795 2.994497776031494 -0.05727759748697281
C 9.085481643676758 5.813137531280518 0.16648487746715546
C 11.932486534118652 6.090643882751465 0.5971156358718872
C 8.303607940673828 7.329624176025391 -2.166382074356079
H 2.040771961212158 -2.7672393321990967 -0.31843775510787964
H 1.485267996788025 0.06844588369131088 -2.003506660461426
H 1.3761930465698242 0.0346008837223053 1.366101861000061
H 5.907378196716309 -0.9863236546516418 -1.7295907735824585
H 4.641072750091553 3.3772051334381104 1.505129098892212
H 4.727263450622559 3.395686626434326 -1.850155234336853
H 9.292765617370605 2.187546968460083 -1.7431401014328003
H 9.177360534667969 1.9843636751174927 1.5766741037368774
H 8.114238739013672 6.610337734222412 1.8158189058303833
H 13.012049674987793 5.323585510253906 -0.9940904378890991
H 12.518585205078125 5.089939594268799 2.3114185333251953
H 12.452577590942383 8.08122444152832 0.8240717649459839
H 9.137940406799316 6.540739059448242 -3.8886027336120605
H 8.923022270202637 9.298189163208008 -2.002485990524292
H 6.249324321746826 7.354738712310791 -2.3977034091949463
