11
Generated by QM7 dataset
N 2.4692294597625732 -0.2570594549179077 -1.603961706161499
C 4.7984113693237305 -0.24082669615745544 -0.5284808278083801
O 5.723753929138184 -2.120159387588501 0.44153451919555664
C 6.0878472328186035 2.2267587184906006 -0.6413541436195374
C 8.399794578552246 2.4466662406921387 0.3670792877674103
C 9.737003326416016 4.769782066345215 0.3178330361843109
N 10.801996231079102 6.682185173034668 0.2607255280017853
H 1.6454412937164307 1.256686806678772 -2.4219295978546143
H 1.501992106437683 -1.9074329137802124 -1.5772221088409424
H 5.132458209991455 3.8014485836029053 -1.5377646684646606
H 9.331789016723633 0.8513972163200378 1.2584253549575806
