15
Generated by QM7 dataset
C 2.1245245933532715 -2.2820522785186768 1.0963813066482544
C 4.63923978805542 -1.1005197763442993 0.5771979689598083
C 5.153377532958984 1.3467133045196533 0.10803564637899399
C 3.3220062255859375 3.38126802444458 0.05852481722831726
C 1.8322784900665283 4.023396968841553 2.0010876655578613
C 7.844971179962158 2.0087223052978516 -0.4968467950820923
O 9.576583862304688 0.475455105304718 -0.614066481590271
H 1.7922163009643555 -3.8163397312164307 -0.2521650493144989
H 0.5415955185890198 -0.9663114547729492 0.934790849685669
H 2.108896493911743 -3.087548017501831 3.001659870147705
H 6.193671703338623 -2.45430064201355 0.5502126812934875
H 3.2471730709075928 4.489365577697754 -1.6731067895889282
H 1.8761768341064453 3.0112407207489014 3.7860474586486816
H 0.5256273150444031 5.597217559814453 1.8424263000488281
H 8.18200397491455 4.037437915802002 -0.8462193608283997
