14
Generated by QM7 dataset
N 1.7610924243927002 1.2952561378479004 0.3558732271194458
C 4.234724998474121 1.184744954109192 -0.3288123607635498
O 5.160955429077148 -0.7471598982810974 -1.200335144996643
C 5.781106948852539 3.4838991165161133 0.19290325045585632
C 4.757347583770752 5.808734893798828 0.048943907022476196
C 8.50240707397461 2.9090821743011475 0.7739184498786926
O 9.957306861877441 5.157780647277832 1.077880859375
H 1.0215859413146973 2.738893508911133 1.355689525604248
H 0.7259761095046997 -0.2993326187133789 0.15306781232357025
H 2.8015756607055664 6.127588272094727 -0.4699559807777405
H 5.881394863128662 7.482049465179443 0.4301394522190094
H 9.377331733703613 1.7921785116195679 -0.7330058813095093
H 8.636445045471191 1.837683081626892 2.5388660430908203
H 10.198001861572266 5.846132278442383 -0.6089831590652466
