20
Generated by QM7 dataset
C 5.219707012176514 -1.7975075244903564 -1.9193381071090698
C 4.631000518798828 0.14356249570846558 0.12593135237693787
C 5.806712627410889 2.785210609436035 -0.2943626344203949
C 4.7730889320373535 4.044524192810059 -2.6993415355682373
N 5.099784851074219 4.441839218139648 1.8550118207931519
C 8.73242473602295 2.666781425476074 -0.3929307460784912
O 9.761739730834961 5.159179210662842 -0.2621805965900421
H 4.306591510772705 -3.5963377952575684 -1.4594354629516602
H 7.249820709228516 -2.1507163047790527 -2.0688533782958984
H 4.5149335861206055 -1.1970469951629639 -3.7659974098205566
H 5.28123664855957 -0.6239875555038452 1.9415801763534546
H 2.5680623054504395 0.3163779377937317 0.27722281217575073
H 5.398626327514648 3.0494887828826904 -4.403345584869385
H 5.418770790100098 6.005738735198975 -2.874103307723999
H 2.7012312412261963 4.069487571716309 -2.7065603733062744
H 5.604455471038818 3.5915756225585938 3.512188196182251
H 3.1789538860321045 4.60959005355835 1.923779010772705
H 9.4120454788208 1.7902508974075317 -2.1384708881378174
H 9.488409042358398 1.5979523658752441 1.2112199068069458
H 8.543092727661133 6.097522735595703 0.7718019485473633
