10
Generated by QM7 dataset
C 1.7317827939987183 0.03399617224931717 -0.0074455211870372295
C 4.0002665519714355 0.07188518345355988 -0.0032881235238164663
C 6.69667911529541 0.11521660536527634 0.0016818562289699912
C 8.112197875976562 2.300325870513916 0.003987322095781565
S 11.248405456542969 1.4966442584991455 0.009864370338618755
N 10.78908920288086 -1.6088560819625854 0.009429733268916607
C 8.309541702270508 -2.0381453037261963 0.004932185169309378
H -0.2810022830963135 -0.00026456164778210223 -0.011111590079963207
H 7.500077247619629 4.24799108505249 0.0026078219525516033
H 7.703563213348389 -3.9920654296875 0.0040818084962666035
