17
Generated by QM7 dataset
C 5.46119499206543 -3.1313328742980957 2.062711715698242
C 6.294469833374023 -0.5268367528915405 2.8531274795532227
C 6.083992004394531 0.21378472447395325 5.277419090270996
C 7.329756259918213 1.0865169763565063 0.7244831919670105
O 5.238850116729736 2.169084310531616 -0.5684674382209778
C 9.160957336425781 3.106010675430298 1.554772138595581
C 8.957887649536133 5.606987476348877 1.1908676624298096
H 4.038288116455078 -3.0153982639312744 0.5637809038162231
H 4.631435394287109 -4.198480129241943 3.632167100906372
H 7.078252792358398 -4.215336322784424 1.3541399240493774
H 5.320826053619385 -1.0330188274383545 6.718392372131348
H 6.642878532409668 2.087637186050415 5.894981861114502
H 8.33696174621582 -0.11820237338542938 -0.6266142725944519
H 4.200634479522705 2.9492578506469727 0.7303035855293274
H 10.840564727783203 2.4058291912078857 2.5172853469848633
H 7.360351085662842 6.430208683013916 0.2032211422920227
H 10.420025825500488 6.883553981781006 1.853745698928833
