18
Generated by QM7 dataset
N 2.894096612930298 0.6118555068969727 -0.14739863574504852
C 5.173068523406982 -0.2740291953086853 -1.467693567276001
C 4.434242248535156 -2.2225069999694824 -3.5052151679992676
O 2.3568663597106934 -1.3134541511535645 -4.976404666900635
C 6.375198841094971 2.036142110824585 -2.611374855041504
C 8.453916549682617 3.415679931640625 -1.2281897068023682
C 9.05386734008789 1.9519548416137695 -3.585906505584717
H 3.424429416656494 1.8812791109085083 1.2051161527633667
H 2.105343818664551 -0.8689905405044556 0.8036438226699829
H 6.462523460388184 -1.1646193265914917 -0.11353474855422974
H 3.830871820449829 -3.9914984703063965 -2.615211009979248
H 6.009801387786865 -2.63344669342041 -4.77936315536499
H 1.45163094997406 -0.173854798078537 -3.8381659984588623
H 5.046116828918457 3.150797128677368 -3.7118568420410156
H 9.13565444946289 2.6644949913024902 0.5524047613143921
H 8.482300758361816 5.462385654449463 -1.3357529640197754
H 9.469266891479492 3.005401611328125 -5.294445514678955
H 10.115533828735352 0.21119579672813416 -3.402508497238159
