16
Generated by QM7 dataset
N 1.8239448070526123 -0.018689392134547234 -0.539875864982605
C 4.548060417175293 -0.007785671856254339 -0.14943954348564148
C 5.283334255218506 2.375253438949585 1.215660810470581
C 6.462012767791748 2.3999900817871094 3.465209722518921
C 7.151989936828613 0.03855041414499283 4.884337425231934
C 6.479152679443359 -2.3496665954589844 3.500472068786621
C 5.299415588378906 -2.3652567863464355 1.2495057582855225
H 1.3460707664489746 -1.569908857345581 -1.567395567893982
H 1.3402693271636963 1.4989686012268066 -1.6134859323501587
H 5.494076251983643 -0.018160268664360046 -1.9924894571304321
H 4.840382099151611 4.1587958335876465 0.30301758646965027
H 6.935805320739746 4.192640781402588 4.346804618835449
H 9.19151496887207 0.04754551127552986 5.245841979980469
H 6.190289497375488 0.047696687281131744 6.715481758117676
H 6.965303897857666 -4.125253200531006 4.406217575073242
H 4.869654178619385 -4.165164470672607 0.36295971274375916
