14
Generated by QM7 dataset
C 0.47347089648246765 -1.043450117111206 0.15985193848609924
C 3.27795672416687 -0.46579858660697937 0.1737792193889618
O 3.602630615234375 2.1942365169525146 0.4840533435344696
N 6.198320388793945 2.7260055541992188 0.5711697340011597
C 6.48225212097168 5.135878562927246 0.8076878190040588
C 9.089884757995605 6.204443454742432 0.9537636637687683
O 9.383662223815918 8.48509693145752 1.140506386756897
H 0.13815787434577942 -3.067932605743408 -0.08653055876493454
H -0.47536060214042664 -0.01787680946290493 -1.3668955564498901
H -0.404684841632843 -0.43204808235168457 1.9313945770263672
H 4.135004043579102 -1.0590214729309082 -1.6146198511123657
H 4.199708461761475 -1.4641976356506348 1.7355433702468872
H 4.929482936859131 6.519063949584961 0.9140605330467224
H 10.630011558532715 4.808011531829834 0.8832201957702637
