8
Generated by QM7 dataset
C 1.889726161956787 0.0 0.0
C 4.618490695953369 0.0 0.0
C 6.86756706237793 0.0 0.0
C 9.770186424255371 -0.0 -0.0
N 11.962684631347656 -1.8897260815720074e-05 -1.8897260815720074e-05
H 1.127070426940918 1.916730284690857 0.13050448894500732
H 1.1666224002838135 -1.07616126537323 1.611728549003601
H 1.1407331228256226 -0.8716740012168884 -1.7184979915618896
