20
Generated by QM7 dataset
C 1.7351843118667603 0.27969837188720703 0.111361563205719
C 4.5769734382629395 -0.15531659126281738 0.09072574973106384
C 6.023067474365234 2.3439595699310303 -0.0631924420595169
C 8.857070922851562 1.9518414735794067 -0.06453415006399155
C 10.178196907043457 1.9764834642410278 -2.235583782196045
C 10.125757217407227 1.533890724182129 2.448971748352051
N 9.94436264038086 3.787389039993286 4.017539024353027
H 0.7330814599990845 -1.529166340827942 0.17270207405090332
H 1.1254642009735107 1.2938954830169678 -1.5860849618911743
H 1.1687767505645752 1.3837519884109497 1.7670261859893799
H 5.063067436218262 -1.353024959564209 -1.529600977897644
H 5.10770320892334 -1.1986533403396606 1.7990949153900146
H 5.478315830230713 3.579859495162964 1.5081148147583008
H 5.45306921005249 3.349917411804199 -1.7856022119522095
H 9.254555702209473 2.271205186843872 -4.0437116622924805
H 12.210124969482422 1.697219729423523 -2.265441417694092
H 12.125824928283691 1.0508955717086792 2.2006428241729736
H 9.245409965515137 -0.0632113367319107 3.4271883964538574
H 10.816282272338867 5.2400970458984375 3.101853132247925
H 10.939624786376953 3.503401041030884 5.6386213302612305
