13
Generated by QM7 dataset
N 1.941712498664856 0.03392058238387108 -0.25598230957984924
C 4.4809184074401855 -0.03246549516916275 -0.04964310675859451
N 5.916751384735107 -1.9651639461517334 0.1274242401123047
C 5.857206344604492 2.3009872436523438 0.0
C 6.981744289398193 4.248746871948242 0.0
C 8.346126556396484 6.61192512512207 0.0
O 6.634847164154053 8.656514167785645 -0.328982412815094
H 1.1127651929855347 1.6925710439682007 0.23232293128967285
H 1.0028587579727173 -1.500272512435913 0.3890568017959595
H 4.8464484214782715 -3.5664613246917725 0.03431742638349533
H 9.741915702819824 6.6850385665893555 -1.5238940715789795
H 9.344109535217285 6.899730205535889 1.7871328592300415
H 5.754764080047607 8.346391677856445 -1.9109100103378296
