13
Generated by QM7 dataset
C 2.354428768157959 0.3651706874370575 0.00935414433479309
C 5.121554851531982 -0.07027891278266907 -7.55890432628803e-05
N 6.869872570037842 1.698731541633606 -0.012850137427449226
C 9.223394393920898 0.529671311378479 -0.016742972657084465
C 11.54516887664795 2.092833995819092 -0.030764741823077202
N 9.365445137023926 -1.9902217388153076 -0.008106925524771214
S 6.39377498626709 -3.054250955581665 0.006991986650973558
H 1.274695873260498 -1.3982083797454834 -0.013568233698606491
H 1.8069372177124023 1.4719455242156982 -1.6504868268966675
H 1.81134033203125 1.4270267486572266 1.6995630264282227
H 13.255049705505371 0.9279122352600098 -0.017668940126895905
H 11.589822769165039 3.319455146789551 1.6344430446624756
H 11.592052459716797 3.2857234477996826 -1.7202365398406982
