13
Generated by QM7 dataset
N 1.9064313173294067 0.21726182103157043 0.9422174692153931
N 4.466858863830566 0.1710769087076187 0.7411695122718811
C 5.540280342102051 2.3065431118011475 0.17325009405612946
C 4.3071393966674805 4.845257759094238 -0.2861045300960541
O 2.5994694232940674 5.506189346313477 1.6755634546279907
C 8.240850448608398 2.04292631149292 -0.06268221884965897
C 10.492629051208496 1.8274219036102295 -0.26004520058631897
H 1.132947564125061 -0.4538933336734772 -0.7068520784378052
H 1.3814276456832886 -1.148821234703064 2.218595266342163
H 3.264275074005127 4.767174243927002 -2.070610761642456
H 5.739041805267334 6.328919410705566 -0.428514301776886
H 1.681705117225647 3.9336349964141846 2.026995897293091
H 12.488161087036133 1.617945671081543 -0.42310968041419983
