14
Generated by QM7 dataset
O 7.960036754608154 0.6904681324958801 3.8548712730407715
C 7.805476188659668 2.834381341934204 2.9984095096588135
N 8.986763000488281 3.6031219959259033 0.8399832844734192
O 7.971639633178711 5.821282386779785 -0.2252553552389145
C 9.99287223815918 7.644036769866943 -0.3290391266345978
C 11.349260330200195 7.855931758880615 -2.81775164604187
C 9.524068832397461 9.877504348754883 -2.020551919937134
H 6.7308831214904785 4.350584030151367 3.9393420219421387
H 9.511804580688477 2.228743076324463 -0.3842758238315582
H 11.059074401855469 8.010133743286133 1.3865677118301392
H 10.786046981811523 6.607238292694092 -4.338130950927734
H 13.348421096801758 8.2945556640625 -2.7796738147735596
H 10.28426742553711 11.687578201293945 -1.4432783126831055
H 7.724009990692139 9.988638877868652 -2.991417646408081
