13
Generated by QM7 dataset
C 6.699324607849121 -1.2834831476211548 0.19042770564556122
C 8.843445777893066 -0.11500873416662216 -0.43631887435913086
O 9.317313194274902 2.3402557373046875 0.2511824071407318
C 11.724125862121582 3.339202880859375 0.046770721673965454
C 13.8804349899292 2.0734264850616455 0.4850926995277405
C 11.872034072875977 6.095160484313965 -0.5319768190383911
O 13.852883338928223 7.275766849517822 -0.7469709515571594
H 6.344812393188477 -3.2170886993408203 -0.3922126591205597
H 5.262452602386475 -0.3338390290737152 1.3023236989974976
H 10.296928405761719 -1.0071862936019897 -1.5627846717834473
H 13.888315200805664 0.09919172525405884 1.0285779237747192
H 15.705986022949219 3.006214141845703 0.3540779948234558
H 10.020707130432129 7.022637844085693 -0.7640540599822998
