14
Generated by QM7 dataset
C 2.806281089782715 -1.5007827281951904 0.15920943021774292
C 5.188961029052734 -0.7063796520233154 -0.12969189882278442
C 5.870358467102051 1.9340213537216187 -0.24303767085075378
C 8.261580467224121 2.7266292572021484 -0.526250958442688
C 8.939935684204102 5.367823600769043 -0.6388030052185059
C 11.323012351989746 6.167385578155518 -0.912945568561554
H 2.3803746700286865 -3.506103277206421 0.23485516011714935
H 1.2312889099121094 -0.19770315289497375 0.3273383677005768
H 6.694316864013672 -2.098144054412842 -0.28786197304725647
H 4.343875885009766 3.302825450897217 -0.08675732463598251
H 9.78874397277832 1.3586186170578003 -0.681529700756073
H 7.4313859939575195 6.757188320159912 -0.49197131395339966
H 12.902029991149902 4.867386341094971 -1.0677708387374878
H 11.744988441467285 8.17355728149414 -0.9879866242408752
