17
Generated by QM7 dataset
C 1.9809999465942383 -0.13623036444187164 -0.0047432123683393
C 4.863928318023682 -0.006349479779601097 0.002834589220583439
N 5.940543174743652 -2.070572853088379 -1.4961906671524048
N 6.41342830657959 -1.3674814701080322 -3.9155502319335938
C 6.420798301696777 1.0760289430618286 -3.9119975566864014
C 5.86412239074707 2.301875352859497 -1.4187307357788086
C 8.302096366882324 3.364241600036621 -0.3273572623729706
H 1.1852173805236816 1.4619488716125488 1.0429399013519287
H 1.3201438188552856 -1.8788224458694458 0.8983002305030823
H 1.2041523456573486 -0.08140940219163895 -1.9242324829101562
H 5.544796466827393 -0.08452744781970978 1.9552052021026611
H 4.9342451095581055 -3.7133874893188477 -1.3942210674285889
H 6.818887710571289 2.2240376472473145 -5.596745014190674
H 4.451817035675049 3.791433095932007 -1.6647353172302246
H 9.78719425201416 1.9254419803619385 -0.19866691529750824
H 7.980502605438232 4.128352642059326 1.5685105323791504
H 9.030132293701172 4.891026973724365 -1.5224578380584717
