20
Generated by QM7 dataset
C 1.2933474779129028 -0.48284393548965454 0.65598064661026
C 3.932671308517456 -0.7758837342262268 -0.44317856431007385
C 5.567662239074707 1.5399378538131714 0.11841023713350296
C 8.21418571472168 1.3667255640029907 -1.0372518301010132
C 9.762797355651855 -0.716640830039978 0.10098696500062943
C 10.184565544128418 -3.1544065475463867 -1.311602234840393
N 12.209691047668457 -1.3058574199676514 -1.0397083759307861
H 0.15650711953639984 -2.163018226623535 0.2496328204870224
H 0.32835879921913147 1.1571927070617676 -0.15588350594043732
H 1.368690848350525 -0.24145030975341797 2.709432601928711
H 3.7916409969329834 -1.0606276988983154 -2.4901676177978516
H 4.7984113693237305 -2.4776577949523926 0.3575361967086792
H 5.719010353088379 1.8007011413574219 2.1700103282928467
H 4.634232044219971 3.2307136058807373 -0.6358172297477722
H 9.19000244140625 3.1638174057006836 -0.696666419506073
H 8.06450080871582 1.151258945465088 -3.0941240787506104
H 9.70982837677002 -0.7393931150436401 2.148127317428589
H 9.412480354309082 -3.358232259750366 -3.195753574371338
H 10.3688325881958 -4.8904032707214355 -0.24179045855998993
H 13.47745132446289 -1.8610401153564453 0.3069104254245758
