15
Generated by QM7 dataset
C 1.655570149421692 0.625612735748291 1.3140777349472046
C 3.794097661972046 0.37473270297050476 -0.012509986758232117
C 5.8395185470581055 2.2997968196868896 0.006670733448117971
C 5.089486122131348 5.073234558105469 -0.6216632127761841
C 6.8523736000061035 5.8547682762146 1.56758451461792
O 7.859238624572754 7.817929267883301 2.1825013160705566
C 6.881267547607422 3.136737585067749 2.6266627311706543
H 0.21293434500694275 -0.8346542119979858 1.2394524812698364
H 1.2614866495132446 2.2528369426727295 2.4991817474365234
H 4.081449508666992 -1.301586627960205 -1.1678696870803833
H 7.38690185546875 1.6607102155685425 -1.2277172803878784
H 3.123131513595581 5.617059707641602 -0.29043200612068176
H 5.693329334259033 5.741177082061768 -2.4798686504364014
H 8.76333999633789 2.422893524169922 3.086376428604126
H 5.630892753601074 2.906342029571533 4.256173610687256
