14
Generated by QM7 dataset
O 1.772374153137207 -0.15189619362354279 -0.7217620015144348
C 4.045714855194092 -0.03295682370662689 -0.2478375881910324
C 5.321185111999512 2.4344964027404785 0.4409675896167755
C 8.088821411132812 2.4064528942108154 -0.33253511786460876
N 9.278706550598145 0.07460638880729675 0.5211675763130188
C 8.035323143005371 -2.185638427734375 0.2259356528520584
C 5.5530548095703125 -2.393791675567627 -0.18020428717136383
H 4.3480329513549805 3.99051570892334 -0.5146480202674866
H 5.129151344299316 2.6928787231445312 2.486614942550659
H 9.076505661010742 4.0305023193359375 0.484110027551651
H 8.26159954071045 2.537977695465088 -2.3936781883239746
H 11.181320190429688 -0.02108934335410595 0.23005525767803192
H 9.240080833435059 -3.846405267715454 0.3417380750179291
H 4.582529067993164 -4.172194004058838 -0.43452364206314087
