17
Generated by QM7 dataset
O 1.9837589263916016 -0.014626480638980865 0.34544193744659424
C 4.679037570953369 0.0084281787276268 0.10697739571332932
C 5.502448081970215 -2.5616750717163086 -0.9089393615722656
C 4.797353267669678 -2.8458898067474365 -3.6943202018737793
C 5.721901893615723 -0.5862875580787659 -5.216361999511719
O 4.753171443939209 1.7232979536056519 -4.20541524887085
C 5.567586898803711 2.133784294128418 -1.6553622484207153
H 1.3703538179397583 1.698391318321228 0.09093362092971802
H 5.447248935699463 0.3071749806404114 2.0030152797698975
H 4.617130279541016 -4.090576648712158 0.17311781644821167
H 7.555673122406006 -2.7557308673858643 -0.7073811888694763
H 5.5935893058776855 -4.598138332366943 -4.458336353302002
H 2.7357754707336426 -2.9767343997955322 -3.8567421436309814
H 7.792871475219727 -0.5020057559013367 -5.25393009185791
H 5.0701165199279785 -0.7378813624382019 -7.172455310821533
H 7.63003396987915 2.312042236328125 -1.6265439987182617
H 4.761165142059326 3.9437639713287354 -1.0594183206558228
