14
Generated by QM7 dataset
C 1.4221322536468506 -0.8969396352767944 0.12474082410335541
C 4.2321929931640625 -0.3670603930950165 -0.1729855239391327
N 4.757290840148926 2.2608115673065186 0.5068245530128479
C 7.444746017456055 2.9157907962799072 0.18524985015392303
C 9.16124153137207 1.7106178998947144 2.03045392036438
N 10.49038028717041 0.7545109391212463 3.492194890975952
H 1.0085468292236328 -2.8568501472473145 -0.3929685354232788
H 0.2942303717136383 0.3358610272407532 -1.0968348979949951
H 0.8071398138999939 -0.6121011972427368 2.080493927001953
H 4.773996353149414 -0.7201935052871704 -2.1403415203094482
H 5.290080547332764 -1.6757146120071411 1.0331132411956787
H 4.243417739868164 2.5708022117614746 2.3406715393066406
H 7.608925819396973 4.970584392547607 0.38739386200904846
H 8.05187702178955 2.4806056022644043 -1.7467305660247803
