16
Generated by QM7 dataset
N 1.9686789512634277 0.05843033269047737 0.2730087339878082
C 4.713449478149414 -0.05296902358531952 -0.05826025828719139
C 5.497251033782959 -2.370699167251587 -1.6543229818344116
C 6.394644260406494 -1.2639055252075195 -4.100176811218262
C 6.488790512084961 1.2604095935821533 -4.011340618133545
C 5.670520305633545 2.1729204654693604 -1.5742363929748535
C 5.822945594787598 4.579845905303955 -0.8150766491889954
H 1.5251034498214722 1.6370508670806885 1.2765477895736694
H 1.3887029886245728 -1.4479649066925049 1.3155895471572876
H 5.624353885650635 -0.1307123601436615 1.8004744052886963
H 3.939096450805664 -3.6992900371551514 -1.9622538089752197
H 7.04170560836792 -3.402867555618286 -0.7354435920715332
H 6.923616409301758 -2.3886327743530273 -5.720560073852539
H 7.1074113845825195 2.4677555561065674 -5.537502288818359
H 5.205798625946045 5.136388778686523 1.058964729309082
H 6.566004753112793 6.0469536781311035 -2.0408475399017334
