15
Generated by QM7 dataset
C 1.711449384689331 -0.328661173582077 0.30755293369293213
N 4.3765869140625 -0.07044898718595505 -0.473981112241745
C 5.416011810302734 -2.6508889198303223 -0.800752580165863
C 8.25303840637207 -2.518683671951294 -1.1005765199661255
O 9.730729103088379 -3.8981270790100098 0.05236431211233139
N 4.784843444824219 1.5065841674804688 -2.478149175643921
C 4.71959114074707 3.8768486976623535 -1.8874584436416626
H 0.9166494607925415 1.515598177909851 0.8101633787155151
H 1.5365173816680908 -1.523157000541687 1.9894280433654785
H 0.5579605102539062 -1.1339868307113647 -1.2119947671890259
H 4.622005462646484 -3.570902109146118 -2.47676944732666
H 5.029468536376953 -3.8185129165649414 0.8654945492744446
H 8.96074104309082 -1.2259787321090698 -2.574713945388794
H 5.018961429595947 5.3093180656433105 -3.366925001144409
H 4.38049840927124 4.582548141479492 0.04675182327628136
