15
Generated by QM7 dataset
C 1.863232135772705 -0.03182298690080643 0.03333476930856705
C 4.762109756469727 0.0 0.0
C 5.779254913330078 -1.4027248620986938 2.325648069381714
C 5.60802698135376 -1.461476445198059 -2.340822696685791
O 6.602627754211426 -0.5477371215820312 -4.227884292602539
C 5.672995567321777 2.5722384452819824 0.0
C 6.423746109008789 4.692322254180908 0.0
H 1.0839847326278687 0.9172541499137878 -1.6359926462173462
H 1.1139179468154907 0.9332790374755859 1.705969214439392
H 1.1290546655654907 -1.968225359916687 0.03390168771147728
H 5.198882102966309 -0.4748503863811493 4.084869861602783
H 7.85086727142334 -1.4742131233215332 2.311683177947998
H 5.10084342956543 -3.3591203689575195 2.388179302215576
H 5.191096782684326 -3.506953716278076 -2.296924352645874
H 7.105105876922607 6.5874528884887695 -0.025927042588591576
