13
Generated by QM7 dataset
C 1.988653302192688 -0.0548398531973362 -0.02031455561518669
C 4.834751129150391 0.160324364900589 0.021958617493510246
C 6.333303928375244 -2.2732648849487305 -0.05243990197777748
C 6.6498517990112305 -3.1115286350250244 -2.669786214828491
N 6.864392280578613 -3.8309662342071533 -4.728982925415039
N 5.810095310211182 2.416184902191162 0.06377825886011124
O 8.449116706848145 2.3365139961242676 0.031331658363342285
H 1.112538456916809 1.812889814376831 0.09915392845869064
H 1.363645315170288 -1.1939479112625122 1.5860849618911743
H 1.391424298286438 -0.9674453139305115 -1.7747740745544434
H 5.300549507141113 -3.7057151794433594 1.0286535024642944
H 8.165279388427734 -2.044192314147949 0.8759636282920837
H 8.9013090133667 4.125631332397461 -0.02859155647456646
