11
Generated by QM7 dataset
O 1.6938937902450562 -2.3829257488250732 -0.00582035630941391
C -0.8797808885574341 -2.8632564544677734 0.00017007534916047007
C -2.7759509086608887 -1.2232763767242432 0.0029857673216611147
C -2.4595353603363037 1.5234026908874512 -0.00455424003303051
N -0.5200148224830627 2.9790399074554443 -0.005499103106558323
N 1.9600050449371338 2.2004916667938232 0.002116493182256818
C 2.8102307319641113 -0.07882047444581985 -0.0013039109762758017
H -1.1729907989501953 -4.890346527099609 0.0030613562557846308
H -4.713449478149414 -1.8915780782699585 0.0082203084602952
H -4.288639068603516 2.5294740200042725 -0.010809233412146568
H 4.871033668518066 -0.3751862347126007 0.002721205586567521
