15
Generated by QM7 dataset
C 1.86565101146698 -0.15448510646820068 -0.34037747979164124
C 4.676486492156982 0.06772778183221817 0.0076911854557693005
C 5.9632954597473145 -2.4129536151885986 0.3919481039047241
O 4.8593363761901855 -4.442047119140625 0.19947949051856995
C 6.021101951599121 2.2410829067230225 0.03494103625416756
N 4.909470558166504 4.576425552368164 -0.0936737209558487
N 8.60428237915039 2.368053674697876 0.1779744029045105
H 0.9584690928459167 1.6283013820648193 -0.8550821542739868
H 0.9795395135879517 -0.8354668021202087 1.4014019966125488
H 1.4286707639694214 -1.4894821643829346 -1.8620038032531738
H 7.979690074920654 -2.3489673137664795 0.8946719169616699
H 3.0605058670043945 4.584305763244629 0.42452698945999146
H 5.885797500610352 5.848891258239746 0.964988648891449
H 9.496289253234863 0.9179344773292542 -0.7094599008560181
H 9.213151931762695 4.024814128875732 -0.5875536203384399
