14
Generated by QM7 dataset
C 1.889726161956787 0.0 0.0
C 4.618490695953369 0.0 0.0
C 6.86756706237793 0.0 0.0
C 9.596331596374512 0.0 0.0
C 10.6712646484375 2.677590847015381 -0.006689630448818207
O 13.35994815826416 2.6153430938720703 0.07071354985237122
H 1.1451740264892578 1.9291836023330688 0.02209089882671833
H 1.1450228691101074 -0.9836402535438538 1.6596519947052002
H 1.1450228691101074 -0.9453732967376709 -1.6817429065704346
H 10.3273344039917 -1.0293148756027222 -1.6432113647460938
H 10.317357063293457 -1.0196772813796997 1.653869390487671
H 9.99680233001709 3.7697579860687256 1.6173220872879028
H 10.108013153076172 3.688480854034424 -1.7225420475006104
H 13.85029411315918 1.9122895002365112 1.6967283487319946
