15
Generated by QM7 dataset
C 1.845412015914917 -0.02876163087785244 0.1957378387451172
C 4.70524787902832 -0.020031096413731575 0.05332807078957558
C 5.940732002258301 2.214343309402466 1.4223023653030396
N 8.197820663452148 1.117262840270996 2.482363224029541
C 8.033905982971191 -1.486042857170105 2.5038115978240967
S 10.113492965698242 -3.4287946224212646 3.7533929347991943
N 5.833187580108643 -2.186753273010254 1.283218502998352
H 1.0717203617095947 -1.6794941425323486 -0.7850111126899719
H 1.0629709959030151 1.6707446575164795 -0.6854414343833923
H 1.183044195175171 -0.1088482216000557 2.156158685684204
H 5.3248701095581055 -0.07014663517475128 -1.9247806072235107
H 4.793951511383057 2.9216678142547607 2.9911909103393555
H 6.427279949188232 3.7704193592071533 0.1567905843257904
H 9.568741798400879 2.052885055541992 3.43463397026062
H 5.533722877502441 -4.014798641204834 0.8004879951477051
