12
Generated by QM7 dataset
O 1.7164571285247803 0.0598854199051857 0.20380696654319763
C 4.424642562866211 0.11880708485841751 -0.08101256191730499
C 5.855978012084961 2.0534520149230957 1.5944186449050903
C 7.721458911895752 -0.006803013850003481 2.5029044151306152
C 5.877501964569092 -1.9624239206314087 1.3867377042770386
O 5.628492832183838 -4.23285436630249 1.5814929008483887
H 1.243817687034607 -1.6632992029190063 -0.25016194581985474
H 4.96102237701416 0.17589570581912994 -2.080097198486328
H 4.703754901885986 2.855187177658081 3.118558406829834
H 6.7343034744262695 3.6118524074554443 0.5570534467697144
H 9.556477546691895 0.0032503290567547083 1.5525801181793213
H 7.972848892211914 -0.12954072654247284 4.546832084655762
