14
Generated by QM7 dataset
O 1.8634589910507202 3.7064709663391113 -0.9690137505531311
N 4.448264122009277 3.9374523162841797 -0.33771294355392456
C 5.894566059112549 1.8100364208221436 -0.6399746537208557
O 5.004788398742676 -0.2436423897743225 -1.2467467784881592
C 8.651884078979492 2.2080883979797363 -0.27964168787002563
C 10.450827598571777 -0.008125822059810162 -0.20872025191783905
C 10.436522483825684 1.7232223749160767 -2.455453395843506
H 1.7331622838974 1.9180153608322144 -1.4535773992538452
H 5.165472030639648 5.709259510040283 -0.24010860919952393
H 9.1328763961792 3.7727625370025635 0.9596407413482666
H 9.686339378356934 -1.8958866596221924 -0.4479595720767975
H 12.043810844421387 0.0885336697101593 1.0746684074401855
H 12.024894714355469 2.991701126098633 -2.7017982006073
H 9.665230751037598 0.9912936091423035 -4.208779335021973
