12
Generated by QM7 dataset
C 1.8632699251174927 -0.0031558426562696695 -0.010695849545300007
C 4.654452323913574 0.11427173763513565 -0.005177849438041449
C 6.193426132202148 2.110313892364502 0.003741657827049494
C 8.693325996398926 0.9756845235824585 0.005574692040681839
N 8.725318908691406 -1.4591331481933594 -0.001058246591128409
C 6.237381458282471 -2.1911940574645996 -0.00784236378967762
O 5.404220104217529 -4.336902618408203 -0.014777658507227898
H 1.0302408933639526 1.8906898498535156 0.001927520614117384
H 1.173822283744812 -1.0112491846084595 1.658858299255371
H 1.1797748804092407 -0.9866071343421936 -1.6972764730453491
H 5.761963844299316 4.092466354370117 0.008409281261265278
H 10.37835693359375 2.1921579837799072 0.012207631021738052
