14
Generated by QM7 dataset
C 1.3161187171936035 2.343865156173706 -0.41018396615982056
C -1.416973352432251 2.2646288871765137 0.46088531613349915
O -2.600414276123047 0.004762109834700823 -0.3996770679950714
C -1.266021966934204 -2.1649270057678223 0.4595057964324951
O 1.262412667274475 -2.2171967029571533 -0.4513988792896271
C 2.6384167671203613 -0.06886161863803864 0.40670686960220337
H 1.3434251546859741 2.4394664764404297 -2.4795475006103516
H 2.2857370376586914 4.01186990737915 0.3305130898952484
H -2.46380615234375 3.870934009552002 -0.31569764018058777
H -1.5548855066299438 2.3664283752441406 2.526658296585083
H -1.301397681236267 -2.274568796157837 2.529247283935547
H -2.2364342212677 -3.83429217338562 -0.27603229880332947
H 2.837348222732544 -0.16055113077163696 2.467528820037842
H 4.537213325500488 -0.1569228619337082 -0.40956035256385803
