19
Generated by QM7 dataset
C 5.975975513458252 -0.8776832818984985 -1.7528343200683594
O 7.924869060516357 0.871636152267456 -1.1578162908554077
C 7.015551567077637 2.8772780895233154 0.3957086503505707
C 9.205215454101562 4.674483299255371 0.9171596765518188
C 8.397924423217773 6.874294757843018 2.592194080352783
C 10.582088470458984 8.670252799987793 3.1099789142608643
O 9.703195571899414 10.663894653320312 4.6784515380859375
H 6.783398628234863 -2.382850170135498 -2.916130781173706
H 4.472981929779053 0.05262887105345726 -2.827200412750244
H 5.2030205726623535 -1.7186870574951172 -0.028232509270310402
H 6.287893772125244 2.1002793312072754 2.171975612640381
H 5.4879536628723145 3.8756959438323975 -0.5831316709518433
H 9.957175254821777 5.37955904006958 -0.8829178214073181
H 10.757965087890625 3.625364065170288 1.8071073293685913
H 7.648685455322266 6.167461395263672 4.391005516052246
H 6.844550132751465 7.919728755950928 1.7033424377441406
H 11.302810668945312 9.485234260559082 1.3506628274917603
H 12.125409126281738 7.696986675262451 4.084681034088135
H 11.132055282592773 11.778889656066895 4.9826788902282715
