12
Generated by QM7 dataset
C 1.9318859577178955 0.0472242571413517 -0.32611003518104553
C 4.416440963745117 -0.10843248665332794 0.07008994370698929
C 6.134334564208984 -2.3254969120025635 0.2831565737724304
N 8.475062370300293 -1.1314923763275146 1.1839323043823242
N 8.435491561889648 1.4447523355484009 0.9784057140350342
C 6.1196136474609375 2.0541512966156006 0.4517957270145416
H 0.7968029975891113 -1.6440616846084595 -0.5680705904960632
H 0.96848464012146 1.8558810949325562 -0.4053840637207031
H 6.43684196472168 -3.195073366165161 -1.5683404207229614
H 5.459173202514648 -3.73098087310791 1.6372398138046265
H 10.057160377502441 -1.9000062942504883 0.39686137437820435
H 5.419753551483154 3.9986226558685303 0.23889917135238647
