17
Generated by QM7 dataset
C 1.863232135772705 -0.0750977173447609 0.15112139284610748
C 4.679661273956299 0.08571797609329224 -0.05487764626741409
C 5.909135818481445 2.3031792640686035 0.12710298597812653
C 8.735259056091309 2.4283547401428223 -0.06086807698011398
C 9.919380187988281 -0.1871962696313858 0.25498074293136597
O 8.633156776428223 -1.9834564924240112 -1.2949914932250977
C 6.078209400177002 -2.365426778793335 -0.48263606429100037
H 1.2724659442901611 -1.949120283126831 0.8169286251068115
H 0.9862858653068542 0.2545838952064514 -1.6935347318649292
H 1.1196627616882324 1.30946683883667 1.4971733093261719
H 4.88751220703125 4.065518856048584 0.37894678115844727
H 9.218292236328125 3.1992874145507812 -1.9222294092178345
H 9.494361877441406 3.7110631465911865 1.3743789196014404
H 11.901419639587402 -0.13628704845905304 -0.333857923746109
H 9.871078491210938 -0.8122987747192383 2.2309350967407227
H 6.0886406898498535 -3.4937257766723633 1.2544758319854736
H 5.140924453735352 -3.4726741313934326 -1.9587767124176025
