19
Generated by QM7 dataset
C 7.7902445793151855 12.100804328918457 2.6821072101593018
O 9.957137107849121 10.924638748168945 1.6161882877349854
C 10.388618469238281 11.741151809692383 -0.9106212258338928
O 8.597630500793457 10.745001792907715 -2.649717330932617
C 8.732840538024902 8.065671920776367 -2.9715566635131836
C 6.327067852020264 7.280056476593018 -4.358010768890381
C 11.046072959899902 7.304150581359863 -4.517579078674316
H 7.5052361488342285 11.329399108886719 4.575064659118652
H 6.104646682739258 11.714147567749023 1.5532604455947876
H 8.087026596069336 14.13974380493164 2.8444347381591797
H 12.309884071350098 11.205320358276367 -1.4534639120101929
H 10.3021821975708 13.808058738708496 -1.0091137886047363
H 8.761242866516113 7.120166778564453 -1.1269192695617676
H 6.169275760650635 8.258159637451172 -6.177268981933594
H 4.6568522453308105 7.804795742034912 -3.254750967025757
H 6.2770843505859375 5.2411932945251465 -4.6954779624938965
H 11.191959381103516 8.441444396972656 -6.2395734786987305
H 10.97683334350586 5.303119659423828 -5.0406365394592285
H 12.788853645324707 7.6047682762146 -3.447370767593384
