17
Generated by QM7 dataset
C 2.1979215145111084 -0.6022179126739502 0.10350029915571213
N 4.925117492675781 -0.2952319085597992 -0.15922832489013672
C 5.627944469451904 2.375196695327759 -0.056710682809352875
C 8.50633716583252 2.6741325855255127 -0.16177944839000702
C 9.90660572052002 1.4095467329025269 2.031285524368286
C 9.323700904846191 2.604949712753296 4.468427658081055
N 8.881335258483887 3.5781209468841553 6.3822855949401855
H 1.7245073318481445 -2.6145684719085693 0.04748881608247757
H 1.1800583600997925 0.33591771125793457 -1.4342265129089355
H 1.5301679372787476 0.14367587864398956 1.9140468835830688
H 5.47039794921875 -1.044735074043274 -1.8504576683044434
H 4.898169994354248 3.2527477741241455 1.6720675230026245
H 4.794839859008789 3.3851230144500732 -1.6634125709533691
H 8.957755088806152 4.698426246643066 -0.20017868280410767
H 9.209901809692383 1.8811089992523193 -1.9446982145309448
H 11.94391918182373 1.5650712251663208 1.6854277849197388
H 9.481077194213867 -0.6144822239875793 2.111013174057007
