15
Generated by QM7 dataset
C -2.6649863719940186 1.2237865924835205 0.2877108156681061
C -2.691272258758545 -1.5473077297210693 -0.5057095885276794
C -0.5488520860671997 -3.016418695449829 0.6264631152153015
C 1.8096206188201904 -2.1566121578216553 0.9428221583366394
C 2.8021047115325928 0.21905705332756042 0.047262050211429596
C 1.5794520378112793 2.2449378967285156 -0.8628867268562317
O -0.9348097443580627 2.732184886932373 -1.1237444877624512
H -4.540955066680908 2.021761417388916 -0.08220309019088745
H -2.3210561275482178 1.4643298387527466 2.3202812671661377
H -2.654120445251465 -1.7456345558166504 -2.566437005996704
H -4.455596446990967 -2.394188642501831 0.17587681114673615
H -0.9938258528709412 -4.9149885177612305 1.2744879722595215
H 3.1919174194335938 -3.4010913372039795 1.8238880634307861
H 4.860394477844238 0.3045860528945923 0.03921181708574295
H 2.6255476474761963 3.840395927429199 -1.6179646253585815
