13
Generated by QM7 dataset
C 2.052507162094116 0.3211211562156677 0.007540007121860981
C 4.82790994644165 0.02537902258336544 0.0005669178208336234
N 6.3195085525512695 2.0602362155914307 -0.01092261727899313
O 8.76986026763916 1.1127651929855347 -0.01445640530437231
N 8.769028663635254 -1.5141619443893433 -0.004573137033730745
C 6.3323588371276855 -2.1703693866729736 0.005423514172434807
C 5.6064772605896 -4.865837097167969 0.017668940126895905
H 1.082265019416809 -1.503069281578064 -0.02260112389922142
H 1.4332250356674194 1.391972303390503 -1.6513371467590332
H 1.4370611906051636 1.3365654945373535 1.7022464275360107
H 3.555311918258667 -5.111936092376709 0.06385384500026703
H 6.393888473510742 -5.821244716644287 1.6760170459747314
H 6.319414138793945 -5.815046310424805 -1.6775099039077759
