10
Generated by QM7 dataset
O 1.806427001953125 -0.0852077528834343 0.039268508553504944
N 4.454349040985107 -0.11156943440437317 0.03431742638349533
C 5.399816989898682 2.1532485485076904 -0.030008850619196892
C 3.887563467025757 4.558208465576172 -0.05871379002928734
O 4.824395179748535 6.548297882080078 -0.7628257274627686
C 8.123554229736328 2.064507007598877 -0.04873603582382202
C 10.393172264099121 1.9973082542419434 -0.06398613005876541
H 1.3940887451171875 -1.8865513801574707 0.039003945887088776
H 1.9312623739242554 4.392196178436279 0.6237797141075134
H 12.405163764953613 1.9382354021072388 -0.08316684514284134
