19
Generated by QM7 dataset
C 1.5328702926635742 0.05769333988428116 0.20934386551380157
C 4.055805683135986 0.14855137467384338 0.3906819820404053
C 5.690362453460693 2.4735758304595947 0.3288123607635498
C 4.372486114501953 5.045852184295654 0.25505632162094116
C 6.502112865447998 6.8714599609375 0.8859224915504456
C 8.09384822845459 5.494964599609375 2.8577382564544678
C 7.374693870544434 2.7005887031555176 2.676154613494873
H 0.5497024059295654 -1.7428944110870361 0.2649773955345154
H 0.38147902488708496 1.7399842739105225 -0.003684965893626213
H 5.067111492156982 -1.635746955871582 0.5767633318901062
H 6.915887355804443 2.320734977722168 -1.3412331342697144
H 2.887633800506592 5.182668209075928 1.6950087547302246
H 3.531501293182373 5.453106880187988 -1.5898833274841309
H 7.644830226898193 7.235610008239746 -0.8043997287750244
H 5.799796104431152 8.689679145812988 1.5756536722183228
H 10.112075805664062 5.785037517547607 2.5056824684143066
H 7.688539981842041 6.209129810333252 4.758462905883789
H 9.05218505859375 1.4957560300827026 2.5325164794921875
H 6.354884624481201 2.1358630657196045 4.391496658325195
