16
Generated by QM7 dataset
C 1.889726161956787 0.0 0.0
C 4.618490695953369 0.0 0.0
C 6.86756706237793 0.0 0.0
C 9.573994636535645 0.07281114906072617 0.058071285486221313
C 11.040120124816895 -1.4096790552139282 -1.8949228525161743
N 10.884085655212402 1.3346190452575684 -2.0260698795318604
C 13.204537391662598 2.6064047813415527 -1.2530773878097534
H 1.1451174020767212 1.9291458129882812 0.02199641242623329
H 1.1450228691101074 -0.9836780428886414 1.6596330404281616
H 1.1451929807662964 -0.9454677700996399 -1.6817617416381836
H 10.402356147766113 0.21939720213413239 1.929259181022644
H 10.006288528442383 -2.4243297576904297 -3.341546058654785
H 12.81298542022705 -2.2660839557647705 -1.3378883600234985
H 12.804311752319336 4.6046013832092285 -0.8935570120811462
H 14.59684944152832 2.5142428874969482 -2.7806942462921143
H 14.08450698852539 1.824436068534851 0.45226815342903137
