16
Generated by QM7 dataset
C 1.6056814193725586 0.6449635028839111 0.3417758643627167
C 4.395389556884766 0.16631479561328888 0.09089582413434982
C 5.46289587020874 -2.1294379234313965 -0.17846573889255524
C 4.196288108825684 -4.651371955871582 -0.18587346374988556
N 4.652449131011963 -5.900726318359375 -2.591362476348877
C 6.027943134307861 2.320734977722168 0.10807343572378159
C 7.393307685852051 4.132075309753418 0.12256763875484467
H 1.043450117111206 2.2667453289031982 -0.8184592723846436
H 1.1274672746658325 1.0653897523880005 2.310492515563965
H 0.44888556003570557 -0.947697639465332 -0.28194713592529297
H 7.51345682144165 -2.236056327819824 -0.36796748638153076
H 2.1649837493896484 -4.541975498199463 0.16567228734493256
H 5.00565767288208 -5.80108118057251 1.3335986137390137
H 3.8129003047943115 -4.879934310913086 -3.9922354221343994
H 3.7803783416748047 -7.615898609161377 -2.5850696563720703
H 8.6105375289917 5.736036777496338 0.13279105722904205
