13
Generated by QM7 dataset
N 3.639007806777954 -0.858823835849762 -2.290461540222168
C 4.9040093421936035 -0.24725176393985748 0.08356369286775589
C 5.674375057220459 2.4580800533294678 0.13520990312099457
C 4.317098140716553 4.617527008056641 -0.43314412236213684
C 5.84118127822876 6.8035430908203125 -0.0826377272605896
N 8.197216033935547 6.433156967163086 0.7087984681129456
S 8.647783279418945 3.3515615463256836 1.0605331659317017
H 3.2197909355163574 -2.7369091510772705 -2.3100011348724365
H 4.871543884277344 -0.5712453126907349 -3.743112802505493
H 6.53172492980957 -1.5046188831329346 0.320327490568161
H 3.605710744857788 -0.6138964295387268 1.6539639234542847
H 2.3725132942199707 4.614692211151123 -1.0665802955627441
H 5.253117561340332 8.73724365234375 -0.4004896581172943
