10
Generated by QM7 dataset
C 1.6108025312423706 0.27036312222480774 -0.006481760647147894
C 3.8757150173187256 0.13626815378665924 -0.0008503767312504351
C 6.560675621032715 -0.02311135083436966 0.005877048242837191
C 8.215471267700195 1.991525650024414 0.005877048242837191
N 10.757681846618652 1.3763253688812256 0.013190288096666336
C 10.987605094909668 -1.0981765985488892 0.018613802269101143
S 8.226261138916016 -2.7970213890075684 0.015325678512454033
H -0.3988834023475647 0.3836333155632019 -0.011470637284219265
H 7.672722816467285 3.9657981395721436 0.0006803013966418803
H 12.810755729675293 -2.024784803390503 0.024831000715494156
