10
Generated by QM7 dataset
N 1.8466403484344482 -0.1003633514046669 0.3729374408721924
C 4.420504093170166 0.08613371849060059 0.1577354371547699
C 5.772149562835693 2.218632936477661 0.11674728244543076
C 8.54811954498291 2.1112399101257324 -0.10100585967302322
O 9.825347900390625 4.039138317108154 -0.1905788779258728
H 1.0767658948898315 -1.6414350271224976 -0.48454466462135315
H 0.878798246383667 1.5211350917816162 0.003930630162358284
H 5.326986789703369 -1.7587870359420776 0.0379645973443985
H 4.934169292449951 4.079805374145508 0.25010526180267334
H 9.40063190460205 0.21183830499649048 -0.18568448722362518
