20
Generated by QM7 dataset
C 1.0518215894699097 1.3193501234054565 -1.4609850645065308
C 3.8726346492767334 1.3763442039489746 -1.5751056671142578
C 5.344863414764404 2.3584160804748535 0.24143141508102417
C 8.18236255645752 2.416865348815918 0.11918503046035767
C 9.262360572814941 5.099633693695068 0.23298433423042297
C 8.533379554748535 6.69900369644165 -2.0612566471099854
N 9.735340118408203 9.179060935974121 -1.9138011932373047
H 0.2640514373779297 2.3114941120147705 -3.0950124263763428
H 0.32008180022239685 2.2180283069610596 0.25159814953804016
H 0.38416242599487305 -0.6366109251976013 -1.502521276473999
H 4.728529453277588 0.5594723224639893 -3.2569429874420166
H 4.484357833862305 3.1581859588623047 1.9301284551620483
H 8.870469093322754 1.4659172296524048 -1.5890140533447266
H 8.913422584533691 1.337321400642395 1.730006456375122
H 11.329437255859375 4.961116790771484 0.3456120193004608
H 8.632760047912598 6.03344202041626 1.9753118753433228
H 6.482648849487305 6.954456806182861 -2.1581616401672363
H 9.138696670532227 5.761435031890869 -3.8038675785064697
H 9.130608558654785 10.093215942382812 -0.3297383189201355
H 9.154645919799805 10.251254081726074 -3.4048707485198975
