19
Generated by QM7 dataset
C 1.601089358329773 -1.4434484243392944 0.9671240448951721
C 4.351264476776123 -1.6049822568893433 0.15225523710250854
C 5.63236665725708 0.9809001684188843 0.24231958389282227
C 8.395277976989746 0.8154546022415161 -0.5745712518692017
C 9.716216087341309 3.365299940109253 -0.5044245719909668
C 12.453767776489258 3.379737377166748 -1.2807618379592896
O 8.650882720947266 5.317008972167969 0.17315560579299927
H 0.7204580903053284 -3.3141071796417236 0.8945396542549133
H 0.5316933393478394 -0.1821696013212204 -0.2765614092350006
H 1.441426396369934 -0.733931839466095 2.904263496398926
H 4.446676731109619 -2.37188982963562 -1.7692371606826782
H 5.350494861602783 -2.929302215576172 1.3923313617706299
H 5.518454074859619 1.749829649925232 2.1647567749023438
H 4.619152069091797 2.305692672729492 -0.9894794821739197
H 8.515256881713867 0.091047003865242 -2.5098586082458496
H 9.427106857299805 -0.46954023838043213 0.677939236164093
H 13.565682411193848 2.3085272312164307 0.08928956091403961
H 13.14879035949707 5.325116157531738 -1.3426882028579712
H 12.647521018981934 2.550034284591675 -3.162381172180176
