13
Generated by QM7 dataset
C 1.7118650674819946 -0.20295658707618713 0.05185408517718315
C 4.5770111083984375 -0.005612486507743597 -0.042802296578884125
C 5.429844379425049 2.6820316314697266 -0.049113981425762177
N 5.779821872711182 4.060322284698486 1.9956263303756714
N 6.569821834564209 6.482308864593506 1.4325824975967407
C 6.787707328796387 6.837369441986084 -1.016767144203186
S 6.049485683441162 4.255058765411377 -2.8269169330596924
H 1.1314923763275146 -2.187868118286133 0.09478866308927536
H 0.8424021005630493 0.6838729977607727 -1.6038295030593872
H 0.9530456066131592 0.7246721982955933 1.739663004875183
H 5.288757801055908 -1.0083956718444824 -1.7102210521697998
H 5.380239486694336 -0.961587131023407 1.6107269525527954
H 7.385257720947266 8.616660118103027 -1.8207322359085083
