19
Generated by QM7 dataset
C 1.8651407957077026 -0.30154359340667725 0.08193852752447128
C 4.73395299911499 -0.15469297766685486 0.035205598920583725
C 5.65343713760376 2.581838369369507 0.019596459344029427
C 8.534343719482422 2.72114896774292 -0.043898336589336395
C 9.392316818237305 5.447645664215088 -0.05423514172434807
N 9.749834060668945 6.6548027992248535 -2.2899322509765625
N 9.729822158813477 6.690858840942383 2.0199849605560303
H 1.2493168115615845 -2.2758917808532715 0.09582801163196564
H 1.0490058660507202 0.613612949848175 -1.5840818881988525
H 1.102674126625061 0.6209073066711426 1.769161581993103
H 5.437346935272217 -1.1433976888656616 -1.64389169216156
H 5.492280960083008 -1.1419048309326172 1.6911348104476929
H 4.942673206329346 3.5694658756256104 1.6983535289764404
H 4.870296478271484 3.5747194290161133 -1.6235203742980957
H 9.266895294189453 1.7812180519104004 -1.7381134033203125
H 9.344185829162598 1.7656466960906982 1.6055680513381958
H 8.698466300964355 6.085390567779541 -3.7821733951568604
H 9.85433578491211 8.558493614196777 -2.082005739212036
H 9.38364315032959 5.55668306350708 3.552250385284424
