10
Generated by QM7 dataset
O 1.8897639513015747 -0.0025700274854898453 -0.021051548421382904
C 4.573137283325195 0.0 0.0
C 5.484023094177246 2.5722384452819824 0.0
C 6.234773635864258 4.692322254180908 0.0
C 7.204977512359619 7.419480323791504 1.8897260815720074e-05
C 7.964402198791504 9.555097579956055 3.779452163144015e-05
H 1.3630973100662231 -1.760090947151184 -0.003741657827049494
H 5.238623142242432 -1.0240614414215088 -1.6686848402023315
H 5.211732387542725 -1.0127042531967163 1.6861270666122437
H 8.634177207946777 11.452383041381836 -3.779452163144015e-05
