17
Generated by QM7 dataset
C 1.9391992092132568 -0.030141131952404976 -0.04586365446448326
C 4.80432653427124 -0.014210740104317665 0.12014878541231155
C 5.828142166137695 2.1634907722473145 1.6863727569580078
C 8.472530364990234 1.2645102739334106 2.324949026107788
C 8.21728515625 -1.5941919088363647 2.5257134437561035
N 5.745901107788086 -2.2449190616607666 1.461835503578186
H 1.2739777565002441 -1.6417185068130493 -1.1615012884140015
H 1.2528128623962402 1.6998087167739868 -0.9499842524528503
H 1.0657488107681274 -0.1525575965642929 1.827818751335144
H 5.616719722747803 0.0463738776743412 -1.7874163389205933
H 4.730551242828369 2.4315106868743896 3.424750566482544
H 5.843959331512451 3.9517953395843506 0.6484784483909607
H 9.767654418945312 1.747373104095459 0.7801734209060669
H 9.190645217895508 2.124638080596924 4.061890602111816
H 9.751988410949707 -2.5420217514038086 1.5124045610427856
H 8.286052703857422 -2.2017765045166016 4.501894474029541
H 5.884115695953369 -3.7512764930725098 0.271553635597229
