11
Generated by QM7 dataset
O 1.886267900466919 0.18572229146957397 -0.0
C 4.426437854766846 -0.06797344982624054 -0.0
O 5.532853603363037 -2.0874481201171875 0.0
C 5.767444133758545 2.3009872436523438 0.0
C 6.891982555389404 4.248746871948242 0.0
C 8.220459938049316 6.549734115600586 0.0
C 7.027891635894775 8.777173042297363 0.0
H 1.387474775314331 1.960250735282898 -0.0
H 10.27328872680664 6.4867682456970215 -0.0
H 4.981998443603516 8.921170234680176 0.0
H 8.096531867980957 10.528552055358887 0.0
