12
Generated by QM7 dataset
O 2.0419814586639404 -0.3161322772502899 -0.19715513288974762
C 4.30167818069458 0.07933070510625839 -0.041800741106271744
C 5.547517776489258 2.5753188133239746 -0.29472169280052185
C 8.039839744567871 2.154287815093994 -0.06213419511914253
C 8.77942180633545 -0.47626766562461853 0.3872615694999695
N 8.169758796691895 -2.393470525741577 -1.4730037450790405
C 6.258187294006348 -1.8822427988052368 0.46260496973991394
H 4.551329612731934 4.312260627746582 -0.6299968957901001
H 9.44029712677002 3.6437320709228516 -0.18362468481063843
H 10.173038482666016 -0.8992072939872742 1.8238502740859985
H 7.6585307121276855 -1.6229913234710693 -3.1675968170166016
H 5.937651634216309 -3.2781834602355957 1.9173160791397095
