15
Generated by QM7 dataset
N 5.96165132522583 -2.2585818767547607 0.24059993028640747
C 4.2776031494140625 -0.08571797609329224 -0.28635019063949585
C 5.7165727615356445 2.4296209812164307 -0.20106686651706696
O 4.617886066436768 4.471848011016846 -0.11017103493213654
N 8.310354232788086 2.127756118774414 -0.2893737554550171
C 10.014849662780762 4.061928749084473 -0.22117353975772858
C 12.501842498779297 3.650648593902588 -0.26943716406822205
H 4.93681526184082 -3.875847101211548 -0.011224973015487194
H 6.397233009338379 -2.2297255992889404 2.1238064765930176
H 2.768051862716675 -0.034619782119989395 1.1275995969772339
H 3.4526429176330566 -0.2917926013469696 -2.1695377826690674
H 8.905070304870605 0.3010333776473999 -0.40961703658103943
H 9.24520206451416 5.9716291427612305 -0.11515991389751434
H 13.300591468811035 1.7654199600219727 -0.3643958866596222
H 13.811781883239746 5.230062961578369 -0.20762421190738678
