12
Generated by QM7 dataset
O 2.184221029281616 -0.14216409623622894 0.8557813763618469
C 4.388832092285156 0.022808995097875595 0.231170192360878
C 5.906452178955078 2.4045820236206055 0.0099021652713418
C 8.219911575317383 1.4849090576171875 -1.4408406019210815
N 8.3947114944458 -1.1936832666397095 -1.0347195863723755
C 6.112659454345703 -2.219785690307617 -0.3414168059825897
O 5.555076599121094 -4.433089733123779 -0.22285540401935577
H 6.4174909591674805 3.0426669120788574 1.908585548400879
H 4.887266635894775 3.880099058151245 -1.009586215019226
H 7.990499019622803 1.797356367111206 -3.4744315147399902
H 9.9627685546875 2.402559995651245 -0.8174577355384827
H 9.747056007385254 -2.334397554397583 -1.7698419094085693
