17
Generated by QM7 dataset
C 1.2144324779510498 -0.25666260719299316 0.7232548594474792
C 4.03061580657959 -0.06899390369653702 0.687784731388092
C 5.307314872741699 2.0063412189483643 -0.020427940413355827
C 8.132152557373047 2.215855121612549 -0.03981652855873108
O 8.811622619628906 4.1920552253723145 1.6647353172302246
C 11.325695991516113 4.636556625366211 2.0317201614379883
C 13.319526672363281 3.489398241043091 0.9818450212478638
H 0.6025580763816833 -1.8655564785003662 -0.42375218868255615
H 0.30570098757743835 1.4464530944824219 -0.02124052122235298
H 0.5527070760726929 -0.5508740544319153 2.660923480987549
H 5.0569071769714355 -1.7380378246307373 1.309296727180481
H 4.285483360290527 3.6863455772399902 -0.6163908839225769
H 8.75755786895752 2.691215753555298 -1.957019329071045
H 9.002409934997559 0.42962923645973206 0.5489654541015625
H 11.546378135681152 6.154025554656982 3.394174814224243
H 13.155290603637695 1.9754630327224731 -0.38091209530830383
H 15.219646453857422 4.074362754821777 1.4966063499450684
