18
Generated by QM7 dataset
C 4.604639053344727 -3.005741596221924 -0.7038663029670715
C 3.5555007457733154 -0.35394570231437683 -0.3409254848957062
C 5.556588649749756 1.5249145030975342 0.4333708882331848
C 6.968024730682373 1.1020126342773438 2.868830919265747
N 5.23348331451416 1.2381107807159424 5.006810665130615
C 6.717730522155762 3.2107579708099365 -1.5726112127304077
O 4.7741851806640625 4.113404750823975 0.08475421369075775
H 3.1493608951568604 -4.248973846435547 -1.4839262962341309
H 5.226358890533447 -3.817152261734009 1.0970994234085083
H 6.218540668487549 -3.000091314315796 -1.9931130409240723
H 2.040601968765259 -0.39602991938591003 1.0707755088806152
H 2.6741137504577637 0.24723286926746368 -2.1195168495178223
H 8.44499683380127 2.533914804458618 3.113191604614258
H 7.914494514465332 -0.7382215261459351 2.8500282764434814
H 4.323164463043213 2.935330390930176 4.9225287437438965
H 6.248530864715576 1.2560632228851318 6.641763687133789
H 6.21961784362793 2.9140331745147705 -3.5321249961853027
H 8.608061790466309 3.9400978088378906 -1.2895491123199463
