16
Generated by QM7 dataset
C 3.8787574768066406 -3.046597480773926 0.5526692867279053
C 6.707091808319092 -2.579967498779297 0.7567219138145447
N 7.19932746887207 -0.6577003002166748 2.6943905353546143
C 9.973426818847656 -0.26529866456985474 2.961503267288208
C 10.43049430847168 2.1380550861358643 4.496150016784668
O 8.328136444091797 3.6111154556274414 4.589879989624023
O 12.437629699707031 2.722339391708374 5.468319416046143
H 3.493253231048584 -4.457655906677246 -0.9105834364891052
H 2.8687744140625 -1.3120557069778442 0.046336084604263306
H 3.1028547286987305 -3.7515788078308105 2.33740234375
H 7.415398597717285 -1.9384243488311768 -1.080299735069275
H 7.659343242645264 -4.355762004852295 1.2362021207809448
H 6.540927886962891 -1.3424992561340332 4.385695457458496
H 10.85976505279541 0.01445640530437231 1.1130298376083374
H 10.82669448852539 -1.870942234992981 3.945937156677246
H 7.012792587280273 2.697300672531128 3.6259119510650635
