18
Generated by QM7 dataset
C 3.7863686084747314 -0.9330523014068604 -2.700437545776367
O 4.238334655761719 0.03061356395483017 -0.23765195906162262
C 5.788079738616943 2.278764009475708 -0.11631264537572861
C 4.560683727264404 4.814417362213135 -0.8829745650291443
N 5.855580806732178 6.054701328277588 1.2693668603897095
C 6.027545928955078 3.5407986640930176 2.522481918334961
C 8.500801086425781 3.165140151977539 3.9198966026306152
H 2.6252264976501465 -2.633711338043213 -2.5390172004699707
H 5.575315475463867 -1.4269132614135742 -3.610888719558716
H 2.7742502689361572 0.4628128409385681 -3.8401691913604736
H 7.6244025230407715 1.9629719257354736 -1.0310723781585693
H 2.4935882091522217 4.853402614593506 -0.7355003356933594
H 5.103224277496338 5.538258075714111 -2.7415390014648438
H 7.567200660705566 6.806623458862305 0.7965006828308105
H 4.403024196624756 3.158299207687378 3.758533000946045
H 10.140251159667969 3.5699384212493896 2.721942663192749
H 8.666491508483887 1.209046721458435 4.573553085327148
H 8.599898338317871 4.393688678741455 5.581136226654053
