16
Generated by QM7 dataset
C 2.6206533908843994 -1.250601887702942 -1.625901460647583
C 4.8519287109375 -0.8447076082229614 -1.518999695777893
C 7.588421821594238 -0.3482954204082489 -1.4001926183700562
C 8.414005279541016 0.3321004807949066 1.2912687063217163
N 11.149138450622559 0.8192529678344727 1.351664423942566
C 11.803512573242188 3.4975996017456055 1.4678447246551514
C 12.004731178283691 1.8360390663146973 3.7700603008270264
H 0.6426958441734314 -1.6137127876281738 -1.726963996887207
H 8.058245658874512 1.1970281600952148 -2.6990013122558594
H 8.617755889892578 -2.0254085063934326 -2.0513923168182373
H 7.997377872467041 -1.2621291875839233 2.552037239074707
H 7.290809154510498 1.9354764223098755 1.985799789428711
H 10.309003829956055 4.893918037414551 1.3946367502212524
H 13.536523818969727 4.032883644104004 0.51810622215271
H 13.870400428771973 1.2443846464157104 4.369802474975586
H 10.636588096618652 2.0692501068115234 5.274282455444336
