14
Generated by QM7 dataset
C -2.624678373336792 1.289038896560669 0.03223872929811478
C -2.888087272644043 -1.5711371898651123 -0.10096807032823563
C -0.48887214064598083 -3.04886531829834 0.2868604362010956
C 1.8732855319976807 -2.169745683670044 0.5519323348999023
C 2.642460823059082 0.5344334244728088 0.6235151290893555
N 1.5774110555648804 2.5355210304260254 -0.29313433170318604
O -0.6472123265266418 2.027430534362793 -1.648767113685608
H -4.37346887588501 2.1882083415985107 -0.6113075017929077
H -2.2716586589813232 1.9427518844604492 1.9688111543655396
H -3.612778425216675 -2.0852749347686768 -1.9747071266174316
H -4.296046733856201 -2.1884729862213135 1.286015272140503
H -0.7411127686500549 -5.091866970062256 0.2968003749847412
H 3.4253742694854736 -3.4874329566955566 0.8120341897010803
H 4.440402984619141 0.8431769013404846 1.6356524229049683
