19
Generated by QM7 dataset
C 1.7379244565963745 -0.3998093605041504 0.0800865963101387
C 4.526857852935791 0.05321468785405159 0.09170840680599213
C 5.675433158874512 2.326158285140991 0.02598373405635357
C 4.2681732177734375 4.796597480773926 -0.10478531569242477
C 8.543508529663086 2.5143940448760986 0.001795239862985909
C 9.654573440551758 3.8458762168884277 2.318467140197754
O 9.224018096923828 2.4242162704467773 4.561307430267334
H 1.3596768379211426 -2.4333248138427734 0.14291998744010925
H 0.8710125684738159 0.3399050533771515 -1.6453089714050293
H 0.8404935002326965 0.4547436833381653 1.7351465225219727
H 5.681366920471191 -1.6499766111373901 0.15444731712341309
H 2.2351114749908447 4.551670074462891 -0.38510727882385254
H 4.968694686889648 5.9375386238098145 -1.6829144954681396
H 4.524420261383057 5.868582248687744 1.6457436084747314
H 9.122803688049316 3.527703046798706 -1.7110713720321655
H 9.371813774108887 0.6170333623886108 -0.12031885981559753
H 8.876913070678711 5.744710922241211 2.575772285461426
H 11.702242851257324 4.036889553070068 2.0918891429901123
H 7.41796875 2.0787744522094727 4.639466762542725
