17
Generated by QM7 dataset
C 1.6297564506530762 -0.4824659824371338 -0.16996197402477264
C 4.513478755950928 -0.4277772903442383 -0.23394809663295746
C 5.510441303253174 -1.833846926689148 -2.5453665256500244
N 5.426121711730957 2.1798558235168457 -0.2515603303909302
C 5.6129021644592285 3.799086570739746 1.7122430801391602
N 5.407432556152344 2.8659019470214844 4.068259239196777
S 6.020346164703369 6.86991024017334 1.2317423820495605
H 0.9049520492553711 0.4749826490879059 1.5156548023223877
H 0.9277799129486084 -2.4287326335906982 -0.14775767922401428
H 0.8271898031234741 0.47513383626937866 -1.820770025253296
H 5.233218669891357 -1.3726593255996704 1.459341049194336
H 4.856898307800293 -0.9556534290313721 -4.303643226623535
H 4.885263442993164 -3.806645393371582 -2.537637710571289
H 7.581070899963379 -1.818332314491272 -2.5734291076660156
H 5.444735527038574 3.067516803741455 -1.9508588314056396
H 5.852878570556641 1.0472673177719116 4.423622131347656
H 5.7075018882751465 4.0936760902404785 5.506926536560059
