22
Generated by QM7 dataset
C 1.8602274656295776 0.07196076959371567 0.01653510332107544
C 4.76485013961792 -0.16230857372283936 0.011697405017912388
C 5.576733112335205 -1.597139835357666 2.4057347774505615
C 5.561936378479004 -1.6843317747116089 -2.3330748081207275
C 5.900216102600098 2.543647050857544 -0.042386557906866074
C 8.790948867797852 2.683789014816284 -0.05327137932181358
N 9.607500076293945 5.320599555969238 -0.09295562654733658
H 1.1880141496658325 1.0621583461761475 -1.6726911067962646
H 1.1986721754074097 1.1241035461425781 1.672218680381775
H 0.9564470648765564 -1.790364384651184 0.05389498919248581
H 5.115866661071777 -0.5202605128288269 4.112025260925293
H 7.609643459320068 -1.9766346216201782 2.4196431636810303
H 4.614201068878174 -3.4259033203125 2.5378644466400146
H 5.090997695922852 -0.6704748272895813 -4.074854373931885
H 4.598251819610596 -3.516270160675049 -2.39233660697937
H 7.594658374786377 -2.0647146701812744 -2.345320224761963
H 5.19041633605957 3.5979440212249756 1.5992374420166016
H 5.178265571594238 3.5343358516693115 -1.7180445194244385
H 9.571123123168945 1.7247341871261597 -1.7106178998947144
H 9.575733184814453 1.786887288093567 1.6356146335601807
H 8.951481819152832 6.177647113800049 -1.6884891986846924
H 11.52974796295166 5.391161918640137 -0.19443392753601074
