14
Generated by QM7 dataset
O 5.406808853149414 -1.7198208570480347 -1.3180084228515625
C 4.162934303283691 0.293323278427124 -0.031747400760650635
C 3.4770960807800293 -0.4133397936820984 2.5752053260803223
N 2.9046790599823 -0.9316727519035339 4.63547945022583
C 5.976750373840332 2.459988832473755 0.2336835265159607
C 6.392848968505859 4.258120059967041 -1.9469470977783203
C 5.052560806274414 5.1564202308654785 0.3906630873680115
H 6.046141147613525 -1.022606372833252 -2.8915834426879883
H 2.477034091949463 0.8156436085700989 -1.1127651929855347
H 7.6361188888549805 1.9552429914474487 1.3351670503616333
H 5.280216217041016 4.041406154632568 -3.6539366245269775
H 8.297712326049805 4.94197416305542 -2.2763264179229736
H 6.052395820617676 6.436086177825928 1.6430602073669434
H 3.041022777557373 5.528885364532471 0.26454275846481323
