17
Generated by QM7 dataset
O 1.9721938371658325 -0.19099462032318115 -0.18833011388778687
C 4.643680572509766 0.11650161445140839 -0.05644612014293671
C 6.365259170532227 -1.1399773359298706 -2.0779807567596436
C 8.370882034301758 -0.5942810773849487 0.019161822274327278
C 6.224417686462402 -1.4515175819396973 1.8586212396621704
C 8.4295015335083 2.289686679840088 0.2478375881910324
C 5.581268310546875 2.8308286666870117 0.18443727493286133
H 1.3346190452575684 0.42970481514930725 1.4195433855056763
H 6.609090328216553 -0.12364478409290314 -3.862316846847534
H 5.987370491027832 -3.1338462829589844 -2.4912447929382324
H 10.140100479125977 -1.6443451642990112 -0.0004346370114944875
H 5.8289923667907715 -3.4828786849975586 1.9262545108795166
H 6.33555269241333 -0.7278658151626587 3.792264699935913
H 9.294164657592773 2.913145065307617 2.0196070671081543
H 9.418924331665039 3.176856279373169 -1.3364899158477783
H 5.053316593170166 3.999208450317383 -1.4388185739517212
H 4.9312214851379395 3.7435853481292725 1.9226830005645752
