17
Generated by QM7 dataset
C 2.517889976501465 1.3134351968765259 3.363372325897217
C 3.585906505584717 1.1375772953033447 1.0750840902328491
C 5.297828197479248 3.114419937133789 -0.046921901404857635
C 7.91829252243042 2.03544282913208 -0.6572089791297913
N 9.622598648071289 3.9575400352478027 -1.714680790901184
N 8.950819969177246 4.913760185241699 -3.9942574501037598
C 10.390205383300781 6.739047050476074 -4.735729217529297
H 1.2798359394073486 -0.16639038920402527 4.060227870941162
H 2.839615821838379 2.933100700378418 4.580809593200684
H 3.1872310638427734 -0.5084497332572937 -0.09010214358568192
H 5.492300033569336 4.724712371826172 1.2459152936935425
H 4.4002461433410645 3.831948757171631 -1.7717127799987793
H 7.764638900756836 0.4419691562652588 -1.9754440784454346
H 8.776908874511719 1.302644968032837 1.0811690092086792
H 11.401058197021484 3.2004780769348145 -1.7806133031845093
H 10.016965866088867 7.6622724533081055 -6.562981128692627
H 12.003332138061523 7.464644908905029 -3.6289167404174805
