17
Generated by QM7 dataset
C 1.8057844638824463 -0.09306900948286057 0.16510537266731262
C 4.630906105041504 0.046184904873371124 -0.03142614662647247
C 5.870245456695557 2.2679359912872314 -0.16914938390254974
C 8.693061828613281 2.4911880493164062 -0.3922504484653473
C 10.024014472961426 -0.010790335945785046 -0.5405183434486389
C 8.814760208129883 -2.2334485054016113 -0.3980141282081604
C 6.000126361846924 -2.461897373199463 -0.07664728909730911
H 0.9304822683334351 1.781973958015442 0.15080013871192932
H 1.2531529664993286 -1.0367037057876587 1.9210388660430908
H 1.0295605659484863 -1.1605186462402344 -1.4284440279006958
H 4.826455116271973 4.035434722900391 -0.12749981880187988
H 9.414993286132812 3.540949821472168 1.2401894330978394
H 9.141833305358887 3.5884575843811035 -2.08990478515625
H 12.063633918762207 0.02759000100195408 -0.7741073966026306
H 9.883438110351562 -3.9831459522247314 -0.516046404838562
H 5.25846529006958 -3.6118712425231934 -1.6321187019348145
H 5.621254920959473 -3.4740915298461914 1.6912293434143066
