18
Generated by QM7 dataset
C 3.646113157272339 -1.177412748336792 1.158515453338623
N 6.232449054718018 -1.0605331659317017 0.21346347033977509
C 7.232643127441406 1.518829584121704 0.41551297903060913
C 9.977395057678223 1.5719308853149414 -0.46521279215812683
C 11.102141380310059 4.198631286621094 -0.27625906467437744
C 13.86994743347168 4.427212715148926 -0.9019851684570312
O 9.843072891235352 6.071822166442871 0.2861612141132355
H 2.9415855407714844 -3.114741086959839 0.9938258528709412
H 2.3860626220703125 0.053082406520843506 0.07283004373311996
H 3.5551040172576904 -0.6503303647041321 3.1569764614105225
H 6.243144989013672 -1.6101411581039429 -1.6340839862823486
H 7.131731986999512 2.167893886566162 2.3819429874420166
H 6.095235824584961 2.815861940383911 -0.7343097925186157
H 10.117707252502441 0.9617194533348083 -2.4394285678863525
H 11.1211519241333 0.3003152906894684 0.703563928604126
H 14.962322235107422 3.1471121311187744 0.2950618267059326
H 14.506766319274902 6.362008571624756 -0.5536897778511047
H 14.16629409790039 3.9676690101623535 -2.8932652473449707
