14
Generated by QM7 dataset
C 1.7245073318481445 0.04316134378314018 -0.009750986471772194
C 4.514895915985107 -0.4874926507472992 0.1348697543144226
C 5.413139343261719 -2.854752540588379 0.3143370449542999
C 6.239327907562256 1.7751898765563965 -0.0043652672320604324
C 6.085315227508545 3.265087604522705 2.4250855445861816
O 4.9225664138793945 5.262282371520996 2.63750958442688
H 1.1084755659103394 1.1500306129455566 1.625372290611267
H 0.606791079044342 -1.6986181735992432 -0.045315634459257126
H 1.2832940816879272 1.1045260429382324 -1.7298364639282227
H 4.154298305511475 -4.476118564605713 0.38597655296325684
H 7.4260945320129395 -3.2496676445007324 0.3853151500225067
H 5.7112250328063965 2.994516611099243 -1.5912060737609863
H 8.217814445495605 1.231874704360962 -0.28272193670272827
H 7.0597710609436035 2.417999029159546 4.0634026527404785
