19
Generated by QM7 dataset
N 4.2526774406433105 -0.8054012656211853 -2.7252306938171387
C 4.487457275390625 0.03936299681663513 -0.10933955758810043
C 6.044081211090088 2.454357385635376 0.03303241357207298
C 4.773580551147461 4.903990268707275 -0.988099992275238
C 6.053321838378906 6.3277668952941895 1.2148293256759644
C 6.061239719390869 3.7867844104766846 2.651512622833252
N 8.509380340576172 3.4396984577178955 3.8742787837982178
H 3.210134506225586 -2.4245753288269043 -2.7796359062194824
H 5.990961074829102 -1.268629789352417 -3.4139037132263184
H 5.390973091125488 -1.4510829448699951 1.0075641870498657
H 2.593592405319214 0.3383176624774933 0.6716086864471436
H 7.939929962158203 2.1835408210754395 -0.7819119691848755
H 2.7039525508880615 4.910831451416016 -0.8833713531494141
H 5.350721836090088 5.4899001121521 -2.883155107498169
H 7.909127712249756 7.099984645843506 0.7060016989707947
H 4.922358512878418 7.832291126251221 2.0681729316711426
H 4.4093546867370605 3.4627909660339355 3.851696491241455
H 10.035069465637207 3.8473880290985107 2.7724549770355225
H 8.79920768737793 1.662278652191162 4.553899765014648
