12
Generated by QM7 dataset
C 0.9690137505531311 2.2830536365509033 -0.1305800825357437
C 2.3834171295166016 0.18485301733016968 -0.11253318935632706
C 5.174126625061035 0.34693482518196106 -0.40859657526016235
O 6.283206939697266 2.3614017963409424 -0.6532405018806458
N 6.322286605834961 -1.9742913246154785 -0.37639564275741577
C 8.870733261108398 -2.295355796813965 -0.6148034930229187
O 9.863161087036133 -4.387187957763672 -0.5853615403175354
H -1.0675441026687622 2.18493914604187 0.08505657315254211
H 1.8056710958480835 4.145907878875732 -0.36054083704948425
H 1.5121777057647705 -1.6519041061401367 0.11933620274066925
H 5.322149276733398 -3.582674980163574 -0.17532879114151
H 9.954888343811035 -0.530124843120575 -0.834710955619812
