18
Generated by QM7 dataset
C 1.5562461614608765 -2.25453782081604 0.9754199385643005
C -0.8166073560714722 -2.872497081756592 -0.5794845223426819
C -2.9468767642974854 -0.9996840357780457 -0.377756267786026
C -2.76172137260437 1.440443754196167 0.2834778130054474
C -0.3552118241786957 2.893397569656372 0.7296988368034363
C 1.9024250507354736 2.0174715518951416 -0.8719574213027954
N 3.202632188796997 -0.27803540229797363 -0.03611266613006592
H 2.698906898498535 -3.9777979850769043 1.1217981576919556
H 1.031733751296997 -1.7814069986343384 2.9245591163635254
H -1.5427156686782837 -4.687220096588135 0.11729530245065689
H -0.3355964720249176 -3.1667652130126953 -2.573183298110962
H -4.823488235473633 -1.7614704370498657 -0.7427379488945007
H -4.497094631195068 2.5352942943573 0.45495155453681946
H 0.10582466423511505 2.8978004455566406 2.7494380474090576
H -0.7358404397964478 4.868255615234375 0.22028537094593048
H 3.3139939308166504 3.5342602729797363 -0.8810092210769653
H 1.3052338361740112 1.7860558032989502 -2.845398426055908
H 4.211935043334961 -0.9782734513282776 -1.5203791856765747
