17
Generated by QM7 dataset
C 4.440554141998291 -1.9455486536026 -2.1479761600494385
N 6.946047306060791 -1.419656753540039 -1.126333475112915
N 7.401528358459473 1.0377620458602905 -0.5596045851707458
C 9.63833999633789 1.5791118144989014 0.2957421541213989
C 11.791116714477539 -0.22383806109428406 0.7140896916389465
O 10.321249961853027 3.9805190563201904 0.9133235216140747
C 8.458735466003418 5.8936967849731445 0.4814266264438629
H 4.304777145385742 -3.939058542251587 -2.678044319152832
H 4.0815629959106445 -0.8105224370956421 -3.8394510746002197
H 2.9738242626190186 -1.540693759918213 -0.746914267539978
H 7.24163818359375 -2.5733535289764404 0.39585983753204346
H 11.196627616882324 -1.7643427848815918 1.9552429914474487
H 13.387443542480469 0.7381081581115723 1.6092718839645386
H 12.416143417358398 -0.98541659116745 -1.1016725301742554
H 9.318163871765137 7.723726272583008 0.9087882041931152
H 6.842395782470703 5.618571758270264 1.7410613298416138
H 7.863339424133301 5.905242919921875 -1.4993842840194702
