20
Generated by QM7 dataset
C 1.8722273111343384 -0.03564023599028587 0.06508217006921768
C 4.737203121185303 -0.0005858151125721633 0.034959934651851654
C 6.032421588897705 1.9988011121749878 1.7474864721298218
C 8.00236701965332 -0.013983973301947117 2.5138838291168213
N 10.165895462036133 0.16053223609924316 0.802736759185791
C 6.097522735595703 -2.0716500282287598 1.6322509050369263
C 6.964150905609131 -4.421014308929443 0.2286757528781891
H 1.155832052230835 -1.6741083860397339 -0.9737569689750671
H 1.1158454418182373 1.6674376726150513 -0.8329724073410034
H 1.1286956071853638 -0.1256289929151535 1.9935476779937744
H 5.429920196533203 0.09208635240793228 -1.9212467670440674
H 4.859014987945557 2.615928888320923 3.34334135055542
H 6.7278594970703125 3.6895391941070557 0.781231701374054
H 8.509228706359863 -0.051135990768671036 4.516483306884766
H 9.731258392333984 0.28557541966438293 -1.0672606229782104
H 11.40175724029541 -1.305536150932312 0.9674453139305115
H 4.928500175476074 -2.6820693016052246 3.2451510429382324
H 8.014762878417969 -3.960676908493042 -1.4914852380752563
H 5.33494234085083 -5.569948673248291 -0.3239746391773224
H 8.176712989807129 -5.582024097442627 1.436872124671936
