13
Generated by QM7 dataset
C 2.089848041534424 -0.09306900948286057 0.16228967905044556
C 4.598913192749023 0.038663797080516815 -0.08441406488418579
C 6.141534328460693 2.373420476913452 0.026116015389561653
C 8.401041984558105 1.59052574634552 -1.4999134540557861
C 8.360223770141602 -1.2333108186721802 -1.2929506301879883
O 10.14741325378418 -2.604288339614868 -1.8137024641036987
O 6.030550956726074 -2.1059675216674805 -0.5851914882659912
H 1.1153730154037476 -1.892711877822876 0.015835905447602272
H 0.9557479023933411 1.577448844909668 0.5151204466819763
H 6.67997407913208 2.7792391777038574 1.9838911294937134
H 5.202246189117432 4.032052040100098 -0.7718586325645447
H 8.207533836364746 2.1180806159973145 -3.4916470050811768
H 10.150437355041504 2.3663718700408936 -0.7229714393615723
