15
Generated by QM7 dataset
C 3.012261152267456 0.5490599274635315 -3.246908664703369
C 4.372920989990234 -0.40105658769607544 -1.3344112634658813
C 5.621462821960449 1.1354608535766602 0.6972144842147827
N 8.322070121765137 0.5208085179328918 0.8071020245552063
C 9.95294189453125 2.440789222717285 -0.3220471143722534
C 9.742199897766113 2.1673080921173096 2.503868341445923
H 2.164076566696167 -0.6945688128471375 -4.6417341232299805
H 2.726515769958496 2.566833972930908 -3.472485065460205
H 4.60584831237793 -2.4393341541290283 -1.1942124366760254
H 4.749826431274414 0.6210774183273315 2.5063247680664062
H 5.252002239227295 3.1588661670684814 0.41609880328178406
H 9.09634780883789 4.068221092224121 -1.218627691268921
H 11.645739555358887 1.7398897409439087 -1.2336888313293457
H 11.294005393981934 1.2793635129928589 3.5017759799957275
H 8.727927207946777 3.5960922241210938 3.5599417686462402
