14
Generated by QM7 dataset
N 1.9622349739074707 -0.2243293821811676 -0.34606555104255676
C 4.740793704986572 -0.05213754251599312 -0.12413611263036728
C 6.3270487785339355 -1.3578816652297974 -2.1011297702789307
O 4.901042461395264 -2.5548529624938965 -4.093449115753174
C 6.219315528869629 1.4891608953475952 -2.018699884414673
C 8.40100383758545 2.854790449142456 -1.1616336107254028
C 10.227632522583008 4.001967430114746 -0.45740821957588196
H 1.1461944580078125 1.3093534708023071 0.495656281709671
H 1.3240365982055664 -1.7529666423797607 0.646135151386261
H 5.4516143798828125 -0.10758210718631744 1.8044049739837646
H 8.051064491271973 -2.2826569080352783 -1.49018132686615
H 3.1153647899627686 -2.1301748752593994 -3.8692898750305176
H 5.158517837524414 2.4037883281707764 -3.5185189247131348
H 11.851228713989258 5.0197930335998535 0.1551465094089508
