13
Generated by QM7 dataset
C 1.9353630542755127 -2.28371524810791 -0.2672261595726013
S 4.4808807373046875 -0.09930510818958282 -0.273159921169281
O 5.956870079040527 -0.4780440330505371 2.001654624938965
O 5.633065700531006 -0.114744171500206 -2.757185935974121
O 2.775629758834839 2.462766647338867 0.039438582956790924
C 3.896709680557251 4.800622463226318 0.09510991722345352
C 2.56369686126709 6.922633647918701 0.35897237062454224
H 0.6887295842170715 -1.8603219985961914 -1.8551063537597656
H 0.9241516590118408 -2.126187562942505 1.523516058921814
H 2.718881368637085 -4.181604862213135 -0.4715055823326111
H 5.9356865882873535 4.765530109405518 -0.09331467747688293
H 0.52239590883255 6.881815433502197 0.543012797832489
H 3.4960122108459473 8.748676300048828 0.3965968191623688
