17
Generated by QM7 dataset
C 7.143466949462891 -5.701530456542969 3.9654202461242676
C 4.397468090057373 -4.879726409912109 4.089537620544434
C 3.3753154277801514 -4.170965671539307 1.4929592609405518
O 0.7852379083633423 -3.439055919647217 1.7747740745544434
N -0.09648941457271576 -2.834683656692505 -0.6441320776939392
C -2.1407196521759033 -4.244646072387695 -1.3592233657836914
N -2.8573415279388428 -6.370247840881348 -0.4191601574420929
H 7.832536697387695 -6.1892499923706055 5.853105545043945
H 8.336772918701172 -4.187028408050537 3.2171263694763184
H 7.364527225494385 -7.362127304077148 2.7523105144500732
H 4.202089309692383 -3.267355442047119 5.377196788787842
H 3.2437148094177246 -6.399028301239014 4.900097846984863
H 3.5039491653442383 -5.793352127075195 0.20957063138484955
H 4.458393096923828 -2.5896806716918945 0.7047544717788696
H -0.24927377700805664 -0.9422741532325745 -0.9495496153831482
H -3.1925032138824463 -3.3928520679473877 -2.9447412490844727
H -1.6198354959487915 -6.767298221588135 1.024118185043335
