17
Generated by QM7 dataset
C 3.6589066982269287 -0.5375893115997314 -2.6925952434539795
O 4.194039344787598 0.31065207719802856 -0.20176605880260468
C 5.629607677459717 2.577775478363037 -0.15418276190757751
C 4.140711307525635 4.903914928436279 -0.8898153305053711
C 5.646652698516846 6.991873264312744 0.3531709313392639
O 6.758813381195068 5.9481964111328125 2.5929877758026123
C 6.406682014465332 3.2576611042022705 2.530400037765503
H 2.646599292755127 -2.3345298767089844 -2.5605788230895996
H 5.409775733947754 -0.846635103225708 -3.7489521503448486
H 2.453922748565674 0.8154546022415161 -3.687479257583618
H 7.326316833496094 2.390749216079712 -1.3334474563598633
H 2.2244911193847656 4.810713768005371 -0.1037081703543663
H 3.958314895629883 5.160539627075195 -2.93276047706604
H 7.185211181640625 7.635249614715576 -0.8727700114250183
H 4.477611541748047 8.622215270996094 0.8506413102149963
H 8.159383773803711 2.315783739089966 3.0949933528900146
H 4.946320533752441 2.7534632682800293 3.9101645946502686
