13
Generated by QM7 dataset
O 1.2017902135849 4.818178176879883 0.014059562236070633
N 3.7950992584228516 5.199997425079346 -0.34130343794822693
C 4.94135046005249 3.0517566204071045 -0.18320894241333008
N 7.477797508239746 2.648904800415039 -0.4227695167064667
C 9.254725456237793 4.722142219543457 -0.3989589810371399
C 11.826642990112305 3.7337207794189453 -0.7429647445678711
C 13.929587364196777 2.922196865081787 -1.0225497484207153
H 0.5246068835258484 6.519101619720459 -0.19339457154273987
H 3.8964641094207764 1.2778894901275635 0.1729477345943451
H 8.153923034667969 0.9931644797325134 0.2596483826637268
H 9.132989883422852 5.735337734222412 1.4027626514434814
H 8.81322956085205 6.06074857711792 -1.9155397415161133
H 15.79351806640625 2.20491361618042 -1.2783241271972656
