17
Generated by QM7 dataset
C 2.590247631072998 -0.47791174054145813 -0.6185262799263
C 5.256877899169922 0.10637268424034119 0.09996651113033295
C 6.94260835647583 -1.992413878440857 1.0650306940078735
C 7.417723178863525 -0.8448587656021118 -1.47566819190979
O 9.284432411193848 1.150162935256958 -1.6399799585342407
C 8.069433212280273 3.4779653549194336 -0.9400820732116699
C 5.8948493003845215 2.772209405899048 0.8306102156639099
H 1.785640001296997 1.0395005941390991 -1.7691237926483154
H 1.4294077157974243 -0.6894477009773254 1.0773518085479736
H 2.455510139465332 -2.2293477058410645 -1.7077833414077759
H 6.19854736328125 -3.9002623558044434 1.1221760511398315
H 8.278020858764648 -1.5878801345825195 2.5651330947875977
H 7.039210796356201 -1.9679986238479614 -3.144731044769287
H 9.434760093688965 4.742985725402832 -0.0404779352247715
H 7.360747814178467 4.366325378417969 -2.671260118484497
H 6.523428916931152 2.835893154144287 2.8046936988830566
H 4.318818092346191 4.097568988800049 0.6306772232055664
