18
Generated by QM7 dataset
N 1.264113426208496 -0.3424750566482544 -0.9448063969612122
C 4.046451568603516 -0.5086764693260193 -0.7102913856506348
C 4.9679388999938965 -2.721243381500244 -2.3645009994506836
O 4.000455856323242 -2.4682281017303467 -4.868255615234375
C 5.305462837219238 1.9933397769927979 -1.539786696434021
C 4.743326187133789 4.159853935241699 0.2259734570980072
C 3.616217613220215 6.311269760131836 -0.4892311990261078
H 0.6566420197486877 1.224334716796875 0.007577801588922739
H 0.46266165375709534 -1.8506654500961304 -0.04907618835568428
H 4.5384039878845215 -0.8985080718994141 1.265209436416626
H 4.291738033294678 -4.525327205657959 -1.6078356504440308
H 7.032275676727295 -2.7936389446258545 -2.45851469039917
H 2.316577434539795 -1.7311592102050781 -4.6322855949401855
H 4.742267608642578 2.470930337905884 -3.4779841899871826
H 7.3632988929748535 1.738699197769165 -1.5739529132843018
H 5.332334518432617 3.945181131362915 2.183332920074463
H 3.016021728515625 6.618047714233398 -2.4268620014190674
H 3.2792985439300537 7.82231330871582 0.8571608662605286
