10
Generated by QM7 dataset
C 1.7516816854476929 -0.022374358028173447 0.019879918545484543
C 4.573005199432373 0.010355698876082897 0.03435521945357323
C 5.931888103485107 2.150489330291748 0.0
C 8.58884334564209 2.150489330291748 0.0
N 10.763936996459961 2.150489330291748 0.0
H 1.0696794986724854 -1.9755196571350098 -0.0817873477935791
H 1.0045973062515259 0.9893283247947693 -1.623047947883606
H 0.9957345128059387 0.8218041062355042 1.7495462894439697
H 5.519871234893799 -1.8162347078323364 0.06869154423475266
H 5.000253200531006 3.9760215282440186 -0.03365602344274521
