14
Generated by QM7 dataset
C 2.917264699935913 0.16731634736061096 0.7634304761886597
N 5.3153839111328125 -0.4208798110485077 -0.5271769165992737
C 5.405712604522705 -3.174229621887207 -1.0895404815673828
C 5.77078914642334 -4.758481502532959 1.178943395614624
N 6.046802520751953 -6.021744728088379 2.9519600868225098
N 5.774360656738281 1.087896466255188 -2.567193031311035
C 7.877115726470947 2.312401294708252 -2.351027250289917
H 2.86612868309021 2.1748857498168945 1.270311713218689
H 2.7130231857299805 -0.892234206199646 2.5286426544189453
H 1.2845791578292847 -0.2242538034915924 -0.4493768811225891
H 7.014191150665283 -3.5308399200439453 -2.3504035472869873
H 3.7098915576934814 -3.761953353881836 -2.1268112659454346
H 8.47615909576416 3.6024982929229736 -3.86987566947937
H 9.148863792419434 2.1433839797973633 -0.7045087814331055
