17
Generated by QM7 dataset
C 6.973410606384277 -3.208244800567627 2.30229115486145
C 6.148734092712402 -1.6789461374282837 0.0539516806602478
C 4.982451915740967 -2.757526159286499 -1.9261411428451538
C 6.620277404785156 1.142396092414856 0.16805334389209747
C 9.438029289245605 1.8247573375701904 0.10074129700660706
N 9.800365447998047 4.565540313720703 0.12249204516410828
H 9.033514976501465 -3.207148790359497 2.467925548553467
H 6.358248233795166 -5.178435325622559 2.1654372215270996
H 6.16967248916626 -2.423309087753296 4.038722515106201
H 4.617092132568359 -4.777095317840576 -1.9892202615737915
H 4.352039337158203 -1.6536048650741577 -3.539022445678711
H 5.75128698348999 1.8942803144454956 1.8958866596221924
H 5.6574811935424805 2.0817601680755615 -1.4126269817352295
H 10.325671195983887 1.0366281270980835 -1.5955902338027954
H 10.411483764648438 1.0291637182235718 1.7432156801223755
H 8.998611450195312 5.331238746643066 -1.4535017013549805
H 11.684176445007324 4.953614711761475 0.007540007121860981
