15
Generated by QM7 dataset
N 3.8196089267730713 -1.3376237154006958 -1.9313945770263672
C 5.907132625579834 -0.6331149339675903 -0.2919059991836548
C 5.779198169708252 2.132725954055786 0.2378598302602768
C 7.653806686401367 3.7546780109405518 -0.2909422218799591
C 7.364243984222412 6.462863445281982 0.301789253950119
N 9.14020824432373 8.068979263305664 -0.19090013206005096
O 8.350454330444336 10.477794647216797 0.5662375092506409
H 3.8820266723632812 -3.2356081008911133 -2.247696876525879
H 4.068221092224121 -0.5101882815361023 -3.6534831523895264
H 7.701956748962402 -1.1674728393554688 -1.174200177192688
H 5.7551798820495605 -1.6691950559616089 1.4930158853530884
H 4.0437493324279785 2.797985315322876 1.1174139976501465
H 9.41642951965332 3.1815052032470703 -1.1597249507904053
H 5.564053058624268 7.047110080718994 1.1830252408981323
H 9.796226501464844 11.52678108215332 0.11109700053930283
