18
Generated by QM7 dataset
C 1.6042451858520508 0.03666068613529205 -0.45665231347084045
C 4.391270160675049 -0.03127496689558029 0.12882262468338013
C 4.951328277587891 -0.07114818692207336 2.925239324569702
C 6.201722145080566 -1.431939959526062 -1.5852912664413452
N 5.334659099578857 -2.858551025390625 -3.7916977405548096
C 6.143027305603027 1.4196945428848267 -1.6076467037200928
O 8.267664909362793 2.6471662521362305 -0.4476005434989929
H 1.2176638841629028 0.3080253601074219 -2.4712705612182617
H 0.6960428357124329 1.5967051982879639 0.5572613477706909
H 0.7052457928657532 -1.7294206619262695 0.13721302151679993
H 6.977776050567627 -0.26201051473617554 3.324047088623047
H 3.9903833866119385 -1.667910099029541 3.828566312789917
H 4.290963172912598 1.6761682033538818 3.8177192211151123
H 7.838338375091553 -2.2956204414367676 -0.6811707019805908
H 3.947770118713379 -1.9292213916778564 -4.751395225524902
H 4.563253879547119 -4.535928726196289 -3.2398409843444824
H 5.327157020568848 2.3440163135528564 -3.245302200317383
H 9.822834014892578 2.2017765045166016 -1.3157596588134766
