15
Generated by QM7 dataset
C 1.6220275163650513 0.411450058221817 -0.320554256439209
C 4.458298683166504 0.10478531569242477 -0.37669801712036133
C 5.474593162536621 -2.42073917388916 -0.8414572477340698
C 4.135495662689209 -4.531280040740967 -1.2303439378738403
C 5.931888103485107 2.150489330291748 0.0
C 8.58884334564209 2.150489330291748 0.0
C 10.837919235229492 2.150489330291748 0.0
H 1.0535789728164673 2.3697166442871094 0.04000550135970116
H 0.7891496419906616 -0.7472165822982788 1.178924560546875
H 0.7896031737327576 -0.13698624074459076 -2.134596824645996
H 7.5256452560424805 -2.603910446166992 -0.8747164607048035
H 2.0869946479797363 -4.5762176513671875 -1.2390556335449219
H 5.098424434661865 -6.314519882202148 -1.5584571361541748
H 5.046154499053955 3.9736404418945312 0.33552086353302
H 12.850553512573242 2.1482596397399902 -0.00041573974885977805
