21
Generated by QM7 dataset
C 2.8704938888549805 -0.917594313621521 -1.5200579166412354
C 5.279479026794434 -1.005202054977417 0.05922401696443558
C 6.837993144989014 1.4326391220092773 -0.16470852494239807
O 5.292782783508301 3.5202763080596924 0.5818466544151306
C 9.269068717956543 1.4212819337844849 1.455958366394043
C 11.042482376098633 -0.762428879737854 0.7915873527526855
C 10.695717811584473 3.9314050674438477 1.1844992637634277
H 1.8559566736221313 -2.713684558868408 -1.3669711351394653
H 3.308967113494873 -0.5970589518547058 -3.515533208847046
H 1.5999743938446045 0.5825080871582031 -0.880593478679657
H 6.392338752746582 -2.636035680770874 -0.5558440685272217
H 4.745726108551025 -1.317630410194397 2.037256956100464
H 7.3377685546875 1.7363181114196777 -2.1529839038848877
H 4.830990314483643 3.271928548812866 2.343543767929077
H 8.736562728881836 1.245518445968628 3.4540414810180664
H 11.497075080871582 -0.770743727684021 -1.2276983261108398
H 10.203595161437988 -2.5897562503814697 1.2759997844696045
H 12.819221496582031 -0.6175246834754944 1.8447695970535278
H 11.25131607055664 4.264884948730469 -0.7823655009269714
H 12.412477493286133 3.9305737018585205 2.341219425201416
H 9.53646469116211 5.528544902801514 1.8044805526733398
