14
Generated by QM7 dataset
C 3.0971665382385254 -1.7435747385025024 0.4319725036621094
N 5.588883876800537 -0.6446800827980042 0.38488051295280457
C 5.929771423339844 1.8738713264465332 -0.1812247335910797
O 4.177258491516113 3.3368782997131348 -0.5793333649635315
C 8.650505065917969 2.6995115280151367 -0.18821671605110168
C 9.100410461425781 4.928027629852295 -1.8772538900375366
O 10.98261547088623 5.118739128112793 -3.22536563873291
H 3.258908271789551 -3.734665870666504 0.9513070583343506
H 2.240893840789795 -1.5673577785491943 -1.4402358531951904
H 1.933624505996704 -0.7427757382392883 1.8152142763137817
H 7.102686882019043 -1.798471212387085 0.5785018801689148
H 9.870455741882324 1.1471960544586182 -0.8061949610710144
H 9.164982795715332 3.2373275756835938 1.7415904998779297
H 7.749218940734863 6.508179187774658 -1.710655689239502
