15
Generated by QM7 dataset
C 2.497424364089966 -0.33773186802864075 -1.0206788778305054
O 5.170403957366943 -0.3851450979709625 -0.7399978637695312
N 6.020913124084473 2.105003833770752 -0.408407598733902
C 8.448304176330566 2.0727460384368896 -0.141597181558609
N 9.895267486572266 4.174253940582275 0.21391700208187103
C 12.455751419067383 4.346011161804199 0.513003945350647
C 13.792581558227539 6.458932876586914 0.8486193418502808
H 1.837626338005066 -2.272320032119751 -1.31804621219635
H 1.9674128293991089 0.8063083291053772 -2.6597707271575928
H 1.612446665763855 0.4132642149925232 0.6905815005302429
H 9.544005393981934 0.2951752245426178 -0.1856278032064438
H 8.917296409606934 5.821981430053711 0.25422486662864685
H 13.420910835266113 2.530853509902954 0.458844393491745
H 12.903409004211426 8.305912971496582 0.9130212068557739
H 15.830103874206543 6.380508899688721 1.0675251483917236
