18
Generated by QM7 dataset
C 1.6023932695388794 0.4411754608154297 -0.6178081631660461
C 4.311409950256348 0.1713036745786667 0.2370661497116089
C 4.707912445068359 0.3118804097175598 3.0646445751190186
N 3.641143321990967 -1.9319047927856445 4.268192291259766
C 6.033120632171631 -1.546003818511963 -1.2742044925689697
C 6.30512809753418 1.2664188146591187 -1.5059605836868286
O 8.508321762084961 2.3342087268829346 -0.34355220198631287
H 1.4479649066925049 0.5243422985076904 -2.681370258331299
H 0.7747499346733093 2.1782872676849365 0.1442427933216095
H 0.46160340309143066 -1.1627674102783203 0.019861022010445595
H 3.8180971145629883 2.017150402069092 3.8291709423065186
H 6.717333793640137 0.39693698287010193 3.547337293624878
H 1.7266427278518677 -1.896283507347107 4.089650630950928
H 3.9983203411102295 -1.8407443761825562 6.157445907592773
H 5.234314441680908 -2.5745062828063965 -2.853184223175049
H 7.47103214263916 -2.5922508239746094 -0.25700274109840393
H 5.6794962882995605 2.1255829334259033 -3.2617239952087402
H 10.01711654663086 1.9487422704696655 -1.3213343620300293
