11
Generated by QM7 dataset
O 3.7814176082611084 -1.106812596321106 -1.9834376573562622
C 4.0115861892700195 0.2823061943054199 -0.14220188558101654
C 2.4495952129364014 -0.006330582778900862 2.089167833328247
N 1.2524538040161133 -0.24645808339118958 3.920954942703247
C 6.025278568267822 2.233675241470337 -0.029366344213485718
C 6.482686519622803 3.9200289249420166 -2.2849812507629395
N 5.1689677238464355 4.877137660980225 -0.0632491335272789
H 7.6262922286987305 1.797715425491333 1.1715357303619385
H 5.342104434967041 3.6472091674804688 -3.9653067588806152
H 8.376513481140137 4.620569229125977 -2.6185178756713867
H 6.335514545440674 6.006154537200928 0.9870606660842896
