14
Generated by QM7 dataset
O 4.84599494934082 -0.7674933671951294 -2.920685052871704
C 4.0051045417785645 0.06166176497936249 -0.5065032839775085
C 5.099633693695068 2.640986680984497 0.05247769504785538
C 3.599928379058838 4.6564741134643555 0.4025116562843323
N 7.678354263305664 2.970517158508301 0.24573998153209686
C 9.540074348449707 1.206892490386963 -0.07273555546998978
O 11.789037704467773 1.7141705751419067 0.16249755024909973
H 3.9509828090667725 -2.329163074493408 -3.288482427597046
H 4.598119258880615 -1.3081817626953125 0.9263437390327454
H 1.9338700771331787 0.10474751889705658 -0.5296524167060852
H 1.5579469203948975 4.50597620010376 0.2690403163433075
H 4.3517937660217285 6.520500183105469 0.8092563152313232
H 8.35865592956543 4.720630168914795 0.6180538535118103
H 8.888742446899414 -0.7127668857574463 -0.5202794075012207
