17
Generated by QM7 dataset
N 3.0785529613494873 -1.646310567855835 -1.0092837810516357
C 5.640662670135498 -0.9014371633529663 -0.22081449627876282
C 6.031174182891846 1.996457815170288 -0.4622081220149994
N 3.8351991176605225 3.335366725921631 0.641032874584198
C 8.510608673095703 2.877901792526245 0.77622389793396
C 10.754998207092285 1.8377586603164673 -0.5017033815383911
C 12.590356826782227 0.9984368085861206 -1.5405992269515991
H 2.9352359771728516 -3.5665557384490967 -0.920995831489563
H 2.843414306640625 -1.1850850582122803 -2.8677539825439453
H 7.022883892059326 -1.9153697490692139 -1.3801803588867188
H 5.904506206512451 -1.4937907457351685 1.7463337182998657
H 6.072257041931152 2.477431058883667 -2.4802465438842773
H 3.789165496826172 2.9803626537323 2.536125898361206
H 2.271224021911621 2.386270523071289 -0.011697405017912388
H 8.541146278381348 2.341559648513794 2.7785022258758545
H 8.616281509399414 4.948020935058594 0.7133905291557312
H 14.224346160888672 0.2659033536911011 -2.462218761444092
