15
Generated by QM7 dataset
C 1.9339646100997925 -0.3112567961215973 1.5378024578094482
C 3.6346237659454346 0.9388537406921387 -0.42713481187820435
O 2.109557867050171 2.0454018115997314 -2.382113218307495
C 1.4012130498886108 0.4580129086971283 -4.259329319000244
O 1.8935433626174927 -1.7884557247161865 -4.438362121582031
C 5.099766254425049 3.0763986110687256 0.7464040517807007
C 7.626651287078857 3.1881191730499268 0.8690850734710693
H 3.032708168029785 -1.0550719499588013 3.1256258487701416
H 0.8713716268539429 -1.876460313796997 0.6986128687858582
H 0.5302571654319763 1.023740291595459 2.2725090980529785
H 4.943882465362549 -0.4563121795654297 -1.2272636890411377
H 0.2706843614578247 1.520265817642212 -5.646615028381348
H 3.998906135559082 4.629054069519043 1.5241397619247437
H 8.813493728637695 1.697219729423523 0.10771439224481583
H 8.564617156982422 4.795614719390869 1.7335213422775269
