15
Generated by QM7 dataset
C 1.889726161956787 0.0 0.0
C 4.618490695953369 0.0 0.0
C 6.86756706237793 0.0 0.0
C 9.596331596374512 0.0 0.0
C 10.507217407226562 2.5722384452819824 0.0
C 11.257967948913574 4.692322254180908 0.0
C 12.168853759765625 7.264560699462891 0.0
H 1.1449850797653198 1.9299205541610718 0.022072000429034233
H 1.1447771787643433 -0.9839804172515869 1.660313367843628
H 1.1447771787643433 -0.9457323551177979 -1.6823664903640747
H 10.310194969177246 -1.0100964307785034 -1.6602377891540527
H 10.310194969177246 -1.0100964307785034 1.6602377891540527
H 10.668184280395508 8.586254119873047 -0.5321846604347229
H 13.726158142089844 7.503365516662598 -1.3405717611312866
H 12.857337951660156 7.810823917388916 1.872265100479126
