17
Generated by QM7 dataset
C 3.519671678543091 -1.6130324602127075 -1.7321230173110962
C 5.667987823486328 -0.872448742389679 0.02707977592945099
C 5.793767929077148 1.9368937015533447 0.38495612144470215
C 7.79719877243042 3.35583233833313 -0.24834780395030975
C 7.786805629730225 6.14096736907959 0.1847207248210907
C 10.119370460510254 7.577442646026611 -0.5844355821609497
O 5.978375434875488 7.21431303024292 1.170250654220581
H 3.4505832195281982 -3.669262409210205 -1.948175311088562
H 3.769984722137451 -0.7800789475440979 -3.610170602798462
H 1.6918529272079468 -0.9886102080345154 -0.9882322549819946
H 7.451927185058594 -1.604301929473877 -0.7305681109428406
H 5.383716583251953 -1.7658168077468872 1.873814582824707
H 4.142468452453613 2.829373598098755 1.233594298362732
H 9.477222442626953 2.537562131881714 -1.0835500955581665
H 11.301091194152832 6.464375019073486 -1.8622684478759766
H 11.21012020111084 8.058755874633789 1.10206937789917
H 9.556987762451172 9.300325393676758 -1.5776379108428955
