16
Generated by QM7 dataset
N 2.047499418258667 -0.36399903893470764 0.20671714842319489
C 4.661349773406982 0.3738067150115967 -0.1382901519536972
C 5.270956516265869 2.7627041339874268 1.2798925638198853
C 7.128273963928223 2.3254780769348145 2.9589710235595703
C 8.019109725952148 -0.3054931163787842 2.966341018676758
C 6.274155139923096 -2.401671886444092 3.7486307621002197
C 6.38239860534668 -1.6184560060501099 1.0024241209030151
H 1.766667127609253 -2.0704596042633057 -0.6313197016716003
H 0.9161959290504456 0.8878878355026245 -0.7117842435836792
H 5.091281414031982 0.6163719892501831 -2.148977756500244
H 4.341286659240723 4.552709102630615 0.9891204237937927
H 7.8923468589782715 3.7408640384674072 4.221534729003906
H 10.038206100463867 -0.6249701976776123 2.9233875274658203
H 7.108299255371094 -4.200369834899902 4.260312080383301
H 4.592922687530518 -1.9375550746917725 4.826209545135498
H 7.267262935638428 -2.8519747257232666 -0.3617313802242279
