15
Generated by QM7 dataset
C 2.033175230026245 -0.14639708399772644 0.25862792134284973
C 4.884469509124756 0.004705417901277542 0.0099021652713418
C 6.031930446624756 2.263551712036133 1.3973201513290405
N 8.366120338439941 1.1745026111602783 2.2542543411254883
C 8.103693962097168 -1.358902096748352 2.439542055130005
N 9.465543746948242 -2.9044902324676514 3.690824031829834
O 6.025448322296143 -2.180006980895996 1.1792268753051758
H 1.31804621219635 -1.8365492820739746 -0.6985561847686768
H 1.1213823556900024 1.5168453454971313 -0.5638564825057983
H 1.4643676280975342 -0.3079686760902405 2.242745876312256
H 5.431242942810059 -3.779452163144015e-05 -1.9888800382614136
H 4.887568950653076 2.8431684970855713 3.022068977355957
H 6.317789077758789 3.8893964290618896 0.1552221029996872
H 9.330239295959473 1.9834944009780884 3.6940367221832275
H 8.684576988220215 -4.657835006713867 3.42059326171875
