15
Generated by QM7 dataset
C -1.921813726425171 0.0003590479609556496 -2.40138840675354
C -1.021680474281311 1.88687264919281 -0.25088003277778625
N -2.4802088737487793 -9.448630589758977e-05 1.4468121528625488
C -1.0214725732803345 -1.887401819229126 -0.2506910562515259
C 1.749092698097229 -1.4706416130065918 0.48605644702911377
N 3.5425562858581543 -3.779452163144015e-05 -0.9649697542190552
C 1.7492438554763794 1.4707549810409546 0.48690682649612427
H -3.945861577987671 0.0001511780865257606 -2.8462300300598145
H -0.8389061093330383 9.448630589758977e-05 -4.159117221832275
H -1.7495840787887573 3.815376043319702 -0.2708166539669037
H -1.9193003177642822 -0.0002267671370645985 3.2885959148406982
H -1.7494895458221436 -3.815376043319702 -0.2714024782180786
H 2.3099822998046875 -2.424877643585205 2.204157590866089
H 3.122451066970825 -3.779452163144015e-05 -2.8455307483673096
H 2.3099446296691895 2.4241783618927 2.2044034004211426
