15
Generated by QM7 dataset
C 2.464184045791626 0.2732732892036438 0.5099236965179443
C 5.273054122924805 0.23048989474773407 -0.017272096127271652
C 6.575321197509766 -2.1899468898773193 0.19800549745559692
C 5.519852161407471 -4.40077543258667 0.8441406488418579
C 6.410763740539551 2.4197564125061035 -0.6491398215293884
C 9.111333847045898 2.820321798324585 -1.2478995323181152
O 9.92019271850586 4.934301853179932 -1.747014045715332
H 1.650902509689331 2.163774251937866 0.2775251865386963
H 2.0742766857147217 -0.3186645209789276 2.4550187587738037
H 1.4545410871505737 -0.9808623790740967 -0.7915873527526855
H 8.590959548950195 -2.2433505058288574 -0.19008755683898926
H 3.52951717376709 -4.615127086639404 1.2839744091033936
H 6.667577266693115 -6.100621700286865 0.9514960050582886
H 5.323963165283203 4.160024166107178 -0.7634682655334473
H 10.354111671447754 1.157967448234558 -1.231515645980835
