16
Generated by QM7 dataset
C 1.681157112121582 -0.9739270806312561 -1.5242531299591064
N 3.823331594467163 -1.019545078277588 0.20084010064601898
C 4.774204254150391 -3.5092592239379883 0.8712015151977539
C 5.219574928283691 1.076350212097168 0.9391372203826904
O 7.024622440338135 0.9443150758743286 2.3961915969848633
C 4.478631973266602 3.567784070968628 -0.14870254695415497
C 5.373776435852051 5.716799736022949 0.846994161605835
H 0.5276304483413696 0.7113873958587646 -1.2297581434249878
H 0.4849226176738739 -2.6283633708953857 -1.1999950408935547
H 2.3951523303985596 -1.004483938217163 -3.463433265686035
H 3.2217185497283936 -4.644833564758301 1.6292651891708374
H 6.276762962341309 -3.4237301349639893 2.285982847213745
H 5.518189430236816 -4.408126354217529 -0.8359014391899109
H 3.28060245513916 3.636777877807617 -1.7992082834243774
H 6.6222429275512695 5.703987121582031 2.477525472640991
H 4.883732795715332 7.536001205444336 0.04197081923484802
