11
Generated by QM7 dataset
C 1.84505295753479 0.0094864247366786 -0.012623370625078678
C 4.681304931640625 -0.012264322489500046 -0.00489439070224762
C 5.976277828216553 -2.1916098594665527 0.009958856739103794
C 6.033461093902588 2.3199222087860107 -0.0077289799228310585
C 7.166370391845703 4.2837066650390625 -0.00763449352234602
H 1.1003119945526123 1.940427541732788 0.0379645973443985
H 1.102333903312683 -0.988553524017334 1.6414350271224976
H 1.1148250102996826 -0.8985080718994141 -1.7230334281921387
H 5.0125932693481445 -4.0017409324646 0.013624925166368484
H 8.028255462646484 -2.2244532108306885 0.01712091825902462
H 8.175427436828613 6.028377532958984 -0.007577801588922739
