14
Generated by QM7 dataset
C 1.889726161956787 0.0 0.0
C 4.618490695953369 0.0 0.0
C 6.86756706237793 0.0 0.0
C 9.596331596374512 0.0 0.0
N 10.542177200317383 2.5514514446258545 0.07540006935596466
C 13.081326484680176 3.0236752033233643 0.12377706170082092
O 14.74449348449707 1.421111822128296 0.12031885981559753
H 1.1451929807662964 1.9291836023330688 0.022034207358956337
H 1.1450228691101074 -0.9835835695266724 1.6596897840499878
H 1.1450228691101074 -0.9454488754272461 -1.681705117225647
H 10.34838581085205 -0.9140416383743286 -1.698183536529541
H 10.34946346282959 -1.0170506238937378 1.6380902528762817
H 9.305445671081543 4.007126331329346 0.05911063402891159
H 13.49353313446045 5.0663933753967285 0.16725966334342957
