13
Generated by QM7 dataset
N 2.0045647621154785 -0.5696579217910767 -0.21467289328575134
C 4.548532962799072 -0.07513551414012909 -0.14210741221904755
C 5.7703166007995605 2.150489330291748 0.0
C 4.45977258682251 4.666036128997803 0.03087812475860119
O 4.460055828094482 5.688226699829102 2.5158679485321045
C 8.427271842956543 2.150489330291748 0.0
N 10.602365493774414 2.150489330291748 0.0
H 1.499667763710022 -2.3243253231048584 0.40098097920417786
H 0.8269063830375671 0.8152845501899719 0.40617772936820984
H 5.64079475402832 -1.8248707056045532 -0.23884248733520508
H 2.497821092605591 4.545150279998779 -0.6109106540679932
H 5.41372537612915 6.009159088134766 -1.2229173183441162
H 3.781682252883911 4.410431861877441 3.6482863426208496
