13
Generated by QM7 dataset
C 1.9034833908081055 -0.013246980495750904 -0.141597181558609
C 4.716208457946777 -0.059734243899583817 0.13381150364875793
N 5.95120096206665 2.165210485458374 0.11948738247156143
C 8.48226261138916 2.0530550479888916 0.3531898260116577
C 9.80578899383545 -0.1685824692249298 0.5919756293296814
C 8.368746757507324 -2.3312606811523438 0.5782561898231506
N 5.83509635925293 -2.335474729537964 0.3509977459907532
H 1.182892918586731 1.9255741834640503 -0.0978500172495842
H 1.0219072103500366 -1.0706621408462524 1.4020445346832275
H 1.3596580028533936 -0.8759258389472961 -1.9407864809036255
H 9.443963050842285 3.86675763130188 0.34111446142196655
H 11.838359832763672 -0.21121469140052795 0.7765640616416931
H 9.235507011413574 -4.183154582977295 0.754000723361969
