14
Generated by QM7 dataset
C 1.9853085279464722 -0.18657265603542328 -0.12243535369634628
C 4.771671772003174 0.16971629858016968 -0.10943403840065002
O 5.997499465942383 -0.49799951910972595 -2.431605100631714
C 6.007155895233154 2.1359386444091797 -1.7577476501464844
C 8.561385154724121 3.157600164413452 -1.1737277507781982
O 9.993910789489746 3.300576686859131 -3.442098379135132
H 1.1113290786743164 0.9921628832817078 1.3358473777770996
H 1.5166374444961548 -2.1612987518310547 0.2790558636188507
H 1.1437945365905762 0.3162645697593689 -1.9456431865692139
H 5.652699947357178 -0.3920992612838745 1.6466128826141357
H 4.863437175750732 3.4094061851501465 -2.872553825378418
H 9.592798233032227 1.9708142280578613 0.17302332818508148
H 8.413117408752441 5.059288024902344 -0.37580984830856323
H 9.887273788452148 1.6288305521011353 -4.209572792053223
