10
Generated by QM7 dataset
C 1.839572787284851 -0.010299007408320904 -0.0
C 4.372901916503906 0.0 0.0
C 5.701379299163818 -2.3009872436523438 0.0
C 6.825917720794678 -4.248746871948242 0.0
C 5.682690143585205 2.3542020320892334 0.0
C 6.798554420471191 4.330590724945068 0.0
H 0.7620887756347656 1.735089898109436 -0.0
H 0.7751467823982239 -1.7638137340545654 -0.0
H 7.837695598602295 -5.988428592681885 -0.0
H 7.7977471351623535 6.076735496520996 0.0
