16
Generated by QM7 dataset
C 2.155686140060425 -0.7225179076194763 0.06120822951197624
C 5.028050899505615 -0.690222442150116 0.006878603249788284
C 6.055003643035889 2.007437229156494 -0.06298457086086273
C 8.935702323913574 2.031663417816162 -0.14191843569278717
C 10.010597229003906 4.67248010635376 -0.2166759967803955
O 8.745728492736816 6.616101264953613 -0.1652376502752304
H 1.4623457193374634 -2.6702964305877686 0.11614257097244263
H 1.372545838356018 0.19025762379169464 -1.6219141483306885
H 1.4342265129089355 0.26344671845436096 1.7304600477218628
H 5.687565326690674 -1.7381511926651 -1.653944969177246
H 5.7510600090026855 -1.6746186017990112 1.6801555156707764
H 5.392900466918945 3.0503203868865967 1.6022987365722656
H 5.304158687591553 2.999052047729492 -1.7219184637069702
H 9.619820594787598 1.035494327545166 -1.822924256324768
H 9.715346336364746 1.0895026922225952 1.5283538103103638
H 12.090675354003906 4.772125244140625 -0.31584882736206055
