17
Generated by QM7 dataset
C 1.8733989000320435 0.020352350547909737 0.039268508553504944
C 4.74302339553833 -0.061699558049440384 0.040591318160295486
C 5.934874057769775 2.1453871726989746 1.511932134628296
N 8.347732543945312 1.1021449565887451 2.243104934692383
C 8.215187072753906 -1.4540308713912964 2.4659793376922607
N 9.84715461730957 -2.8269169330596924 3.6209609508514404
C 5.808451175689697 -2.4507670402526855 1.3149659633636475
H 1.0990080833435059 -1.5829291343688965 -1.014688491821289
H 1.1936644315719604 1.7612625360488892 -0.8484681248664856
H 1.1129164695739746 -0.05389498919248581 1.9628207683563232
H 5.425271511077881 -0.00247554131783545 -1.919224739074707
H 4.833617210388184 2.6353931427001953 3.1952245235443115
H 6.157842636108398 3.827772617340088 0.332383930683136
H 9.442035675048828 2.0046026706695557 3.5294792652130127
H 9.311077117919922 -4.687673568725586 3.569352626800537
H 6.199662208557129 -3.958031415939331 -0.04210309684276581
H 4.587480068206787 -3.164403200149536 2.824498176574707
