17
Generated by QM7 dataset
C 2.054018974304199 0.015080014243721962 -0.054272934794425964
C 4.881502628326416 0.14554670453071594 0.01424853503704071
C 6.549866199493408 -1.198256492614746 -2.060802936553955
C 8.582097053527832 -0.614142119884491 0.019161822274327278
C 6.46868371963501 -1.5677356719970703 1.869581699371338
C 8.525593757629395 2.2770442962646484 0.28971391916275024
O 5.844601631164551 2.7051050662994385 0.2759377956390381
H 1.231874704360962 0.8232969641685486 1.6636393070220947
H 1.3975847959518433 -1.9412022829055786 -0.20720846951007843
H 1.3022291660308838 1.0609489679336548 -1.6733524799346924
H 6.7641801834106445 -0.1871962696313858 -3.8512051105499268
H 6.1522111892700195 -3.193504810333252 -2.444474220275879
H 10.382948875427246 -1.605454683303833 -0.03717091307044029
H 6.063526630401611 -3.5979251861572266 1.857147216796875
H 6.605915546417236 -0.9095441102981567 3.8242008686065674
H 9.3341703414917 2.923614263534546 2.078188419342041
H 9.403239250183105 3.2431480884552 -1.312320351600647
