17
Generated by QM7 dataset
O 2.1067044734954834 0.8202922940254211 -0.08384715020656586
C 4.694986820220947 0.10682621598243713 -0.20514866709709167
C 5.0391058921813965 -1.3054605722427368 -2.6355066299438477
C 5.971383571624756 -3.6540122032165527 -2.8225138187408447
C 6.261966705322266 2.464958667755127 -0.021391699090600014
C 7.144128322601318 3.4248640537261963 2.5162458419799805
C 9.02160930633545 2.3353803157806396 0.6822100281715393
H 1.900308609008789 1.7349764108657837 1.4935072660446167
H 5.066318035125732 -1.142188310623169 1.4069011211395264
H 4.459356784820557 -0.3246738612651825 -4.344574928283691
H 6.554779529571533 -4.717228889465332 -1.1689845323562622
H 6.150189399719238 -4.563934326171875 -4.65140962600708
H 5.718991756439209 3.855494737625122 -1.4282739162445068
H 6.718184471130371 2.332848072052002 4.1966094970703125
H 7.167636871337891 5.4512553215026855 2.819509267807007
H 10.305187225341797 3.6233232021331787 -0.2631443738937378
H 9.838896751403809 0.5046324729919434 1.1043559312820435
