15
Generated by QM7 dataset
C 1.9730063676834106 -0.01821696013212204 -0.08781557530164719
C 4.788301467895508 -0.0054802056401968 -0.07383160293102264
N 6.179952621459961 -1.156795859336853 -2.1541366577148438
C 6.257884979248047 1.6020909547805786 -1.9289190769195557
C 8.63867473602295 2.8806040287017822 -1.0730810165405273
C 9.902240753173828 3.7015955448150635 -3.400959014892578
N 10.891984939575195 4.410091876983643 -5.225772857666016
H 1.2543812990188599 1.4803736209869385 1.1433221101760864
H 1.2633007764816284 -1.827025055885315 0.6215120553970337
H 1.194080114364624 0.2818715572357178 -1.981680154800415
H 5.560027599334717 -0.3257320821285248 1.7968082427978516
H 5.004372596740723 -1.697030782699585 -3.5906119346618652
H 5.178416728973389 2.6903653144836426 -3.2940382957458496
H 9.855280876159668 1.6135804653167725 0.021486185491085052
H 8.172101974487305 4.511210918426514 0.11143714934587479
