16
Generated by QM7 dataset
O 5.700906753540039 5.362986087799072 -2.580723285675049
C 4.458714485168457 4.147665500640869 -1.047210693359375
C 5.5243120193481445 2.086408853530884 0.6006872653961182
C 8.322882652282715 1.6049065589904785 0.19360244274139404
C 10.183733940124512 3.602592706680298 1.220933198928833
N 11.842555046081543 1.5118753910064697 2.0695712566375732
C 9.615607261657715 -0.17850352823734283 2.1014699935913086
H 2.422175407409668 4.52188777923584 -0.7955936193466187
H 4.448509693145752 0.36488720774650574 0.1947362720966339
H 5.139582633972168 2.6161179542541504 2.5654544830322266
H 8.738245010375977 1.065163016319275 -1.7704466581344604
H 9.466375350952148 4.755741596221924 2.785834312438965
H 11.02502155303955 4.854517459869385 -0.192241832613945
H 13.149148941040039 1.016767144203186 0.738410472869873
H 9.97590160369873 -2.0983519554138184 1.4246456623077393
H 8.707328796386719 -0.2926051914691925 3.960280179977417
