17
Generated by QM7 dataset
C 1.761375904083252 0.2933043837547302 0.8519074320793152
C 4.491519927978516 0.18010979890823364 -0.09305011481046677
N 4.62255334854126 -0.9434268474578857 -2.635978937149048
N 3.8427014350891113 -3.3795294761657715 -2.853259801864624
C 3.8871288299560547 -4.198763370513916 -5.15171480178833
C 5.577413082122803 2.8130462169647217 -0.21399258077144623
C 7.594790458679199 3.5990023612976074 1.0997828245162964
H 1.663525938987732 1.203320860862732 2.7099239826202393
H 0.9580155611038208 -1.6042451858520508 1.0511980056762695
H 0.5463009476661682 1.3652704954147339 -0.4392290413379669
H 5.604852199554443 -0.9840559959411621 1.2134876251220703
H 6.445553302764893 -0.7502023577690125 -3.2539761066436768
H 3.2918083667755127 -6.151285171508789 -5.556267261505127
H 4.486058712005615 -3.042421340942383 -6.782415866851807
H 4.62255334854126 4.143375873565674 -1.4593788385391235
H 8.60866641998291 2.347663402557373 2.3709070682525635
H 8.271576881408691 5.5280914306640625 0.9262114763259888
