13
Generated by QM7 dataset
C 1.7349575757980347 -0.19016313552856445 0.05100370943546295
C 4.596494197845459 0.05075804516673088 -0.04081808403134346
C 5.40828275680542 2.7473971843719482 -0.06052792817354202
N 5.746203422546387 4.183645725250244 1.9451518058776855
C 6.494478702545166 6.551907062530518 1.1200406551361084
N 6.751254558563232 7.024263381958008 -1.338833212852478
S 6.017171382904053 4.339472770690918 -2.829392433166504
H 1.184744954109192 -2.1823692321777344 0.10414280742406845
H 0.8541184067726135 0.6758794784545898 -1.6087805032730103
H 0.9606989622116089 0.7351979613304138 1.7347686290740967
H 5.325172424316406 -0.9494361877441406 -1.7037203311920166
H 5.412874698638916 -0.8844107389450073 1.6177189350128174
H 6.879642486572266 8.04671859741211 2.463900566101074
