17
Generated by QM7 dataset
C 2.310927152633667 -0.2014825940132141 0.42794737219810486
C 4.739792346954346 0.7037907242774963 -0.831403911113739
C 5.402103424072266 -0.9399497509002686 -3.1158182621002197
O 7.906198501586914 -0.4199916422367096 -3.964834451675415
C 4.585836410522461 3.4510746002197266 -1.6861459016799927
N 2.393867254257202 4.486001968383789 -2.5412092208862305
N 6.583276748657227 4.859846591949463 -1.7245829105377197
H 1.7544972896575928 1.0706431865692139 1.962745189666748
H 2.5678164958953857 -2.092966079711914 1.2285676002502441
H 0.7401868104934692 -0.29916253685951233 -0.9173108339309692
H 6.276498794555664 0.5819978713989258 0.5572046637535095
H 4.099704265594482 -0.6420155763626099 -4.697310924530029
H 5.341197490692139 -2.9441933631896973 -2.6051197052001953
H 7.8836350440979 1.2769824266433716 -4.691887855529785
H 0.7587061524391174 3.9272854328155518 -1.7224476337432861
H 2.5336124897003174 6.3947954177856445 -2.7043871879577637
H 8.123347282409668 3.870896100997925 -1.0684133768081665
