15
Generated by QM7 dataset
O 4.401455402374268 -0.5233974456787109 2.794904947280884
C 4.761240482330322 -0.04197081923484802 0.18271762132644653
C 5.525275707244873 2.629572868347168 -0.13462409377098083
C 7.566954612731934 3.5437090396881104 -1.2736564874649048
O 7.813204765319824 6.131972312927246 -1.3126416206359863
C 5.568966388702393 7.035450458526611 -0.0505690723657608
C 4.012077331542969 4.772730350494385 0.84028559923172
H 4.025740146636963 -2.3134593963623047 2.9537174701690674
H 2.9863343238830566 -0.4101272523403168 -0.8126200437545776
H 6.207296848297119 -1.3353561162948608 -0.5365310311317444
H 9.085311889648438 2.5325543880462646 -2.178778648376465
H 4.498814105987549 8.204340934753418 -1.3837897777557373
H 6.141874313354492 8.233272552490234 1.5380481481552124
H 2.1055896282196045 4.817063331604004 0.040024399757385254
H 3.861107349395752 4.745934009552002 2.9029595851898193
