13
Generated by QM7 dataset
C -2.5668528079986572 0.18184834718704224 -0.7372199296951294
C -0.8843351602554321 -1.289473533630371 1.2327628135681152
N -1.0387635231018066 1.1833842992782593 2.744222402572632
C -0.563251793384552 2.2304248809814453 0.07965195924043655
C 1.9639357328414917 1.1769592761993408 -0.5141378045082092
C 1.7454077005386353 -1.216549038887024 0.27023082971572876
H -2.5018084049224854 -0.4671024978160858 -2.6997761726379395
H -4.5365519523620605 0.5372869372367859 -0.20095348358154297
H -1.5799622535705566 -3.000469446182251 2.1411542892456055
H -2.7909932136535645 1.5708726644515991 3.4389424324035645
H -0.9200509786605835 4.23364782333374 -0.2293560653924942
H 3.5679352283477783 2.1234662532806396 -1.3302538394927979
H 3.126476287841797 -2.7082231044769287 0.253185510635376
