15
Generated by QM7 dataset
C 2.7224905490875244 -0.6038053035736084 -1.988275408744812
N 5.2661566734313965 -0.4880784749984741 -0.9271752238273621
N 6.220675945281982 1.8787468671798706 -0.6584561467170715
C 8.611311912536621 2.009610414505005 -0.13774213194847107
C 10.46634292602539 -0.09853032231330872 0.17491304874420166
C 9.433966636657715 4.591089725494385 0.13859251141548157
C 10.124850273132324 6.741975784301758 0.3683643043041229
H 2.1369590759277344 -2.576565980911255 -2.1866588592529297
H 2.671581506729126 0.2675285339355469 -3.8635072708129883
H 1.363834261894226 0.36137232184410095 -0.7632225751876831
H 5.245804309844971 -1.4113798141479492 0.7720665335655212
H 9.874688148498535 -1.3216177225112915 1.7323119640350342
H 12.35385799407959 0.6344188451766968 0.5881016850471497
H 10.552363395690918 -1.211881399154663 -1.5643341541290283
H 10.71495532989502 8.656211853027344 0.5631194710731506
