19
Generated by QM7 dataset
C 2.0852749347686768 -0.41715705394744873 0.7017875909805298
C 4.939706325531006 -0.14180505275726318 0.9855299592018127
O 6.121729850769043 -1.9301851987838745 -0.668074905872345
C 5.9428486824035645 2.5362014770507812 0.38915130496025085
C 4.703981876373291 4.56041955947876 2.038731098175049
C 8.831445693969727 2.665194034576416 0.7083638310432434
O 10.083144187927246 1.1067180633544922 -1.0870649814605713
H 1.0615158081054688 0.6841942667961121 2.1187798976898193
H 1.5300545692443848 -2.401407241821289 0.9057457447052002
H 1.4670699834823608 0.18258534371852875 -1.1806063652038574
H 5.472779273986816 -0.6738952398300171 2.914883613586426
H 5.427501201629639 -1.6650187969207764 -2.3557136058807373
H 5.526371955871582 2.945213794708252 -1.6029224395751953
H 4.967277526855469 4.150802135467529 4.0501556396484375
H 2.6752474308013916 4.7007317543029785 1.6649810075759888
H 5.520211219787598 6.4235758781433105 1.6542284488677979
H 9.4069242477417 2.0719714164733887 2.606196880340576
H 9.51097297668457 4.59757137298584 0.41543740034103394
H 9.333602905273438 -0.5799002647399902 -0.9197486042976379
