20
Generated by QM7 dataset
C 3.8597090244293213 -0.02437746711075306 1.2691401243209839
C 5.312946319580078 -0.33104223012924194 -1.216756820678711
C 3.785801649093628 -1.849002480506897 -3.182865619659424
N 3.2384426593780518 -4.422809600830078 -2.34692645072937
C 5.975635051727295 2.2452969551086426 -2.26546049118042
C 8.437759399414062 3.4869415760040283 -1.5450401306152344
C 8.05454158782959 2.5350863933563232 -4.193113327026367
H 4.9411234855651855 1.1186801195144653 2.6141903400421143
H 3.484881639480591 -1.8539347648620605 2.158331871032715
H 2.0457985401153564 0.9269295930862427 0.9621729850769043
H 7.064835548400879 -1.3661208152770996 -0.806138277053833
H 4.843387126922607 -1.9461534023284912 -4.961986064910889
H 2.002126932144165 -0.8812549114227295 -3.599606990814209
H 4.890308856964111 -5.351591110229492 -2.0033364295959473
H 2.366882085800171 -5.380465984344482 -3.772233486175537
H 4.330023765563965 3.45086669921875 -2.4777145385742188
H 9.747113227844238 2.4667539596557617 -0.3449506163597107
H 8.438023567199707 5.514012813568115 -1.242287039756775
H 7.789999008178711 3.920217990875244 -5.680422306060791
H 9.101563453674316 0.873695969581604 -4.775356769561768
