17
Generated by QM7 dataset
C 1.8784444332122803 -0.07604257762432098 -0.022563330829143524
C 4.762109756469727 0.0 0.0
N 5.765970230102539 -1.3292144536972046 -2.2021923065185547
C 5.672995567321777 2.5722384452819824 0.0
C 6.423746109008789 4.692322254180908 0.0
C 7.33463191986084 7.264560699462891 0.0
N 5.2291178703308105 9.023309707641602 -0.23587562143802643
H 1.1028252840042114 0.8911381363868713 1.6376934051513672
H 1.1841402053833008 -2.0272414684295654 0.007218753919005394
H 1.0965514183044434 0.8544585704803467 -1.7020763158798218
H 5.433265209197998 -0.9737002849578857 1.6996952295303345
H 5.168306350708008 -0.4277395009994507 -3.794796943664551
H 5.0130085945129395 -3.0969398021698 -2.2729814052581787
H 8.661294937133789 7.568428993225098 -1.5589673519134521
H 8.350397109985352 7.664785861968994 1.7574453353881836
H 4.3741679191589355 8.729211807250977 -1.9332842826843262
H 5.918754577636719 10.815073013305664 -0.27457720041275024
