17
Generated by QM7 dataset
C 12.2180814743042 2.7561278343200684 5.783638954162598
C 12.989221572875977 4.22225284576416 3.446255683898926
O 10.892437934875488 5.746165752410889 2.6781575679779053
N 11.611176490783691 6.961429595947266 0.4403628706932068
C 11.494466781616211 9.55549430847168 0.5916732549667358
C 11.222421646118164 11.030614852905273 -1.8293304443359375
N 11.571001052856445 10.796099662780762 2.6979997158050537
H 13.777161598205566 1.5853478908538818 6.4693074226379395
H 10.597583770751953 1.5355159044265747 5.373814105987549
H 11.63332462310791 4.0445051193237305 7.294135093688965
H 13.502849578857422 2.9068145751953125 1.9306764602661133
H 14.609907150268555 5.436420917510986 3.880363702774048
H 10.82059097290039 6.182125568389893 -1.1305097341537476
H 9.221900939941406 11.435885429382324 -2.1453304290771484
H 11.955428123474121 9.946441650390625 -3.428189992904663
H 12.258464813232422 12.815404891967773 -1.69289231300354
H 11.695401191711426 9.457719802856445 4.098759174346924
