19
Generated by QM7 dataset
C 9.37942886352539 -0.27187490463256836 3.8465564250946045
O 7.6815667152404785 1.8110190629959106 3.933804988861084
C 7.344987392425537 3.0033795833587646 1.5272200107574463
C 4.935756683349609 4.585968494415283 1.676791787147522
C 9.632180213928223 4.607568264007568 0.8696330785751343
C 10.424334526062012 6.592026233673096 2.746565818786621
C 10.926263809204102 4.252715110778809 -1.2872625589370728
H 9.391277313232422 -1.1679641008377075 5.707350730895996
H 11.299806594848633 0.35963377356529236 3.421311378479004
H 8.75944709777832 -1.6670974493026733 2.453280210494995
H 7.033692836761475 1.5391819477081299 0.08979978412389755
H 5.004297256469727 5.937953948974609 3.2421841621398926
H 3.307474374771118 3.361482620239258 2.045685291290283
H 4.591939926147461 5.616001605987549 -0.08284559100866318
H 10.732643127441406 5.756616115570068 4.612405776977539
H 8.97818374633789 8.061326026916504 2.909705877304077
H 12.188507080078125 7.518388748168945 2.1883974075317383
H 10.3823823928833 2.816561222076416 -2.6479976177215576
H 12.571497917175293 5.390538215637207 -1.7518328428268433
