16
Generated by QM7 dataset
N 2.044816017150879 -0.4218246638774872 -1.1005953550338745
C 4.667566776275635 -0.48847532272338867 -0.24555101990699768
C 5.796772480010986 2.1681394577026367 -0.2612357437610626
C 8.570871353149414 2.195786237716675 0.5587542057037354
O 9.566814422607422 4.664391994476318 0.1323942095041275
C 8.893863677978516 1.5554524660110474 3.2425055503845215
C 9.161864280700684 1.0384612083435059 5.438650608062744
H 1.3370379209518433 -2.213644027709961 -1.1366702318191528
H 1.9620836973190308 0.22461284697055817 -2.913863182067871
H 5.756785869598389 -1.7378110885620117 -1.4860050678253174
H 4.716246128082275 -1.2922892570495605 1.6598031520843506
H 4.684782028198242 3.425827741622925 0.9607934355735779
H 5.658633708953857 2.9765076637268066 -2.1683852672576904
H 9.666043281555176 0.8921775221824646 -0.6182994842529297
H 8.76848030090332 5.776760578155518 1.3589776754379272
H 9.404505729675293 0.5822057127952576 7.383878231048584
