14
Generated by QM7 dataset
O 1.7653443813323975 0.011754096485674381 0.3920236825942993
C 4.464704990386963 0.042972370982170105 0.2951185405254364
C 5.397190093994141 2.313969612121582 -1.2048704624176025
O 7.965346813201904 1.8807499408721924 -1.88078773021698
N 8.139598846435547 0.010015548206865788 -3.770646095275879
C 6.89876651763916 -2.0326082706451416 -3.2126100063323975
C 5.420679569244385 -2.4325122833251953 -0.8230324387550354
H 1.2166056632995605 1.5454747676849365 1.2477294206619263
H 5.143324375152588 0.16918718814849854 2.249530076980591
H 5.291365623474121 4.027535438537598 -0.05019112676382065
H 4.249276161193848 2.6645326614379883 -2.8961565494537354
H 7.010052680969238 -3.640916347503662 -4.530694007873535
H 3.8646976947784424 -3.7334375381469727 -1.2403028011322021
H 6.683432102203369 -3.3954977989196777 0.5065221786499023
