17
Generated by QM7 dataset
C 1.7716938257217407 0.039344098418951035 -0.0775543600320816
C 4.66357946395874 0.010487980209290981 -0.16724076867103577
C 5.657083988189697 -1.5051857233047485 -2.4361214637756348
N 4.973721504211426 -4.1863861083984375 -2.2895166873931885
C 5.690796852111816 2.6997194290161133 -0.2782432734966278
N 5.14642333984375 4.1792426109313965 1.76233971118927
O 6.969480037689209 3.5456743240356445 -2.015752077102661
H 1.0780320167541504 1.050026297569275 1.588447093963623
H 0.9973218441009521 -1.8758366107940674 0.004100705496966839
H 0.9882322549819946 0.9851709008216858 -1.7440282106399536
H 5.386456489562988 -0.8443863391876221 1.5805102586746216
H 7.721024036407471 -1.3620957136154175 -2.5485036373138428
H 4.90125036239624 -0.7246910929679871 -4.200501918792725
H 5.879429340362549 -4.998703479766846 -0.7952345609664917
H 5.642533302307129 -5.0826640129089355 -3.860653877258301
H 4.163501262664795 3.5616235733032227 3.2781834602355957
H 5.816293716430664 5.969720363616943 1.76421058177948
