14
Generated by QM7 dataset
C 5.1681742668151855 -1.7680655717849731 -0.12009209394454956
O 7.628144264221191 -0.683041512966156 -0.1560724824666977
N 7.384331703186035 1.9540902376174927 -0.031142687425017357
C 9.613037109375 2.941358804702759 -0.08668173849582672
C 9.80140495300293 5.709505081176758 0.013549336232244968
C 9.726572036743164 7.063796520233154 2.513486862182617
O 12.060307502746582 6.6264190673828125 1.2127506732940674
H 5.358753204345703 -3.8219711780548096 -0.23064108192920685
H 4.072152137756348 -1.111725926399231 -1.746239185333252
H 4.196987152099609 -1.2815366983413696 1.6394129991531372
H 11.369707107543945 1.8252297639846802 -0.21472957730293274
H 9.144838333129883 6.712514877319336 -1.6442317962646484
H 9.35792350769043 5.976240158081055 4.207758903503418
H 9.005735397338867 8.977862358093262 2.5529255867004395
