17
Generated by QM7 dataset
C 1.1818536520004272 2.108083963394165 1.9496493339538574
C 3.026283025741577 2.741954803466797 0.3373161256313324
C 5.784224987030029 2.324589967727661 0.7963494658470154
O 6.9984307289123535 4.726771831512451 0.7077780365943909
C 9.688380241394043 4.567959308624268 1.0891058444976807
C 10.888923645019531 6.945348262786865 2.070629596710205
C 10.585716247558594 4.7026214599609375 3.779660224914551
H -0.784009575843811 2.4833648204803467 1.4917875528335571
H 1.583873987197876 1.231704592704773 3.7602903842926025
H 2.5340659618377686 3.6406896114349365 -1.4450736045837402
H 6.553929328918457 1.1041102409362793 -0.6870855093002319
H 6.122920513153076 1.4410673379898071 2.637528657913208
H 10.788559913635254 3.4650585651397705 -0.24670374393463135
H 9.679309844970703 8.567829132080078 2.3879334926605225
H 12.770485877990723 7.4109578132629395 1.4109829664230347
H 12.262962341308594 3.642371416091919 4.281344413757324
H 9.179665565490723 4.81636381149292 5.262414932250977
