11
Generated by QM7 dataset
C 1.8323918581008911 0.24056214094161987 -0.0012661165092140436
C 4.097228527069092 0.08490539342164993 0.00034015069832094014
C 6.7846269607543945 -0.114744171500206 0.0021920823492109776
N 8.083908081054688 1.9528051614761353 -0.013209185563027859
N 10.699893951416016 1.231515645980835 -0.0076911854557693005
C 10.804830551147461 -1.213355302810669 0.010658055543899536
C 8.28297233581543 -2.4580612182617188 0.01989881694316864
H -0.17442172765731812 0.4037777781486511 -0.002872383687645197
H 12.564184188842773 -2.3134217262268066 0.01889726147055626
H 7.999588489532471 -3.5877585411071777 -1.6795319318771362
H 7.999513149261475 -3.5619826316833496 1.7361291646957397
