21
Generated by QM7 dataset
C 2.0851616859436035 -0.25581222772598267 -0.39181581139564514
C 4.954503059387207 -0.5500425696372986 -0.16155268251895905
C 5.925273895263672 -2.331752061843872 -2.2217321395874023
C 6.225362777709961 2.071404457092285 -0.2748795747756958
C 9.07108211517334 2.049502372741699 0.013606027700006962
C 10.10948657989502 1.1149383783340454 2.4864261150360107
C 10.599039077758789 2.890298366546631 -1.8308990001678467
H 1.345655083656311 0.9403654932975769 1.1264090538024902
H 1.1435110569000244 -2.0939300060272217 -0.2603475749492645
H 1.560063362121582 0.6042966246604919 -2.1998679637908936
H 5.344958305358887 -1.4182205200195312 1.6804012060165405
H 5.665984630584717 -1.5139729976654053 -4.1050896644592285
H 4.913722515106201 -4.136875152587891 -2.1647002696990967
H 7.935942649841309 -2.7470381259918213 -1.970096230506897
H 5.441447734832764 3.272986650466919 1.2245992422103882
H 5.703798294067383 2.992853879928589 -2.060425043106079
H 9.243311882019043 2.1362977027893066 4.0630621910095215
H 12.157421112060547 1.3856227397918701 2.6177053451538086
H 9.731447219848633 -0.9047253131866455 2.718843460083008
H 9.854033470153809 3.5918970108032227 -3.60911226272583
H 12.640435218811035 2.900219440460205 -1.615678071975708
