17
Generated by QM7 dataset
C 5.127866268157959 -1.1702884435653687 3.506519079208374
C 5.476539611816406 -0.5966809988021851 0.7038851976394653
C 6.176588535308838 2.1536264419555664 0.15403157472610474
O 4.328304290771484 3.795968532562256 1.2205551862716675
C 8.817292213439941 2.825310707092285 1.1243870258331299
C 11.04312515258789 1.901820421218872 -0.3830663859844208
O 9.08945083618164 4.06994104385376 3.0778157711029053
H 4.604752540588379 -3.1544065475463867 3.761273145675659
H 3.6244380474090576 -0.014664274640381336 4.330666542053223
H 6.868171691894531 -0.8311204314231873 4.567109107971191
H 3.686269760131836 -1.0282944440841675 -0.2496139258146286
H 6.907421588897705 -1.8746082782745361 -0.07572132349014282
H 6.155291557312012 2.4829301834106445 -1.891200065612793
H 5.011005878448486 4.343044281005859 2.851351022720337
H 11.171683311462402 -0.1542961448431015 -0.26705610752105713
H 12.781067848205566 2.728065252304077 0.37299415469169617
H 10.841377258300781 2.4962716102600098 -2.3516507148742676
