16
Generated by QM7 dataset
C 4.862926959991455 -2.1789298057556152 0.315451979637146
O 7.213613986968994 -0.9252855181694031 0.6905437111854553
C 7.077629089355469 1.6754311323165894 -0.05946968123316765
C 9.609993934631348 2.94181227684021 0.42539626359939575
C 11.570094108581543 2.078623056411743 -1.459189772605896
N 12.200979232788086 -0.41439804434776306 -1.3115832805633545
O 12.58156967163086 3.4949350357055664 -2.9866931438446045
H 5.097158432006836 -4.161932945251465 0.8408336639404297
H 4.298635482788086 -2.083404064178467 -1.670763611793518
H 3.4033968448638916 -1.3422725200653076 1.515352487564087
H 5.614092826843262 2.6161367893218994 1.0659189224243164
H 6.567346572875977 1.789570689201355 -2.064242362976074
H 10.306774139404297 2.5229732990264893 2.3296353816986084
H 9.414332389831543 4.995169639587402 0.24396364390850067
H 11.023131370544434 -1.626997470855713 -0.40092429518699646
H 13.386404037475586 -1.1112723350524902 -2.6366403102874756
