16
Generated by QM7 dataset
C 1.8745704889297485 0.11240091174840927 0.05285564064979553
C 4.726734161376953 -0.020768091082572937 -0.23986293375492096
C 5.974255561828613 2.527470827102661 0.13568232953548431
O 4.825699329376221 4.504067897796631 0.5087898373603821
C 8.77035140991211 2.578965902328491 -0.14943954348564148
C 10.359516143798828 3.6148571968078613 1.9756709337234497
N 10.2174654006958 0.9016450047492981 1.521626353263855
H 1.0318093299865723 -1.7501509189605713 -0.2540358901023865
H 1.0470216274261475 1.4298990964889526 -1.3095046281814575
H 1.356218695640564 0.7533393502235413 1.9501407146453857
H 5.197389602661133 -0.6987829208374023 -2.1393778324127197
H 5.489541053771973 -1.3557084798812866 1.1453063488006592
H 9.463899612426758 2.8189234733581543 -2.060065984725952
H 9.409721374511719 4.310540676116943 3.651876926422119
H 12.121988296508789 4.5467376708984375 1.5135949850082397
H 11.821352005004883 0.27629685401916504 0.647193431854248
