15
Generated by QM7 dataset
O 6.010519504547119 -1.2940466403961182 0.08615261316299438
C 3.8924012184143066 0.38660016655921936 -0.02596483752131462
C 4.848715782165527 3.092895984649658 -0.09550675749778748
C 3.170393466949463 4.988725662231445 -0.27355676889419556
N 7.450075149536133 3.350182056427002 0.030821433290839195
C 8.961780548095703 5.418525218963623 0.042972370982170105
N 11.391722679138184 5.413366317749023 0.15567563474178314
H 5.307900428771973 -2.9934961795806885 0.12925726175308228
H 2.7281599044799805 0.0683513954281807 1.6545307636260986
H 2.809796094894409 -0.05289343371987343 -1.7334647178649902
H 1.1535454988479614 4.623422622680664 -0.3653218448162079
H 3.7436609268188477 6.9541730880737305 -0.3354452848434448
H 8.29999828338623 1.62079918384552 0.12088578194379807
H 7.955860614776611 7.238822937011719 -0.050909221172332764
H 12.029656410217285 3.590876579284668 0.232644185423851
