17
Generated by QM7 dataset
C 1.9020471572875977 -0.33015406131744385 1.3957139253616333
C 4.39406681060791 -0.7057749032974243 0.0775921568274498
O 4.792591094970703 -2.5888681411743164 -1.2322903871536255
C 6.3187150955200195 1.3971501588821411 0.3601818084716797
C 9.036084175109863 0.48303288221359253 0.01948307640850544
C 9.849385261535645 -1.4362107515335083 2.009988307952881
O 9.490790367126465 -0.4055352210998535 4.464345932006836
H 2.214815616607666 -0.18455065786838531 3.433481216430664
H 0.6679803729057312 -1.9485533237457275 1.0300897359848022
H 0.9924274682998657 1.3817867040634155 0.6878414154052734
H 6.089132308959961 2.26999568939209 2.2229981422424316
H 5.878673553466797 2.8349103927612305 -1.0631599426269531
H 10.276897430419922 2.138792037963867 0.14514987170696259
H 9.293408393859863 -0.3364090323448181 -1.865632176399231
H 11.854195594787598 -1.888951301574707 1.7746796607971191
H 8.764908790588379 -3.19010329246521 1.8670305013656616
H 10.103779792785645 -1.6615417003631592 5.660183429718018
