20
Generated by QM7 dataset
C 1.7304222583770752 0.05635163187980652 -0.049113981425762177
C 4.590919494628906 -0.07638273388147354 0.05175960063934326
C 5.938502311706543 1.8006443977355957 1.8286312818527222
N 7.760802745819092 -0.2073974460363388 2.504756450653076
C 5.91389799118042 -2.164530038833618 1.6623542308807373
C 4.480389595031738 -3.2622721195220947 3.917194366455078
C 7.184001922607422 -4.230152130126953 0.099512979388237
H 0.9688059091567993 -1.566847562789917 -1.0774651765823364
H 1.1225162744522095 1.7718071937561035 -1.0302976369857788
H 0.885336697101593 0.07800789177417755 1.836719274520874
H 5.353537559509277 0.0371142216026783 -1.8809956312179565
H 4.81105375289917 2.456247091293335 3.4373929500579834
H 6.775197505950928 3.4503185749053955 0.9050087332725525
H 9.365161895751953 -0.14707738161087036 1.436078429222107
H 3.6475493907928467 -1.792027235031128 5.114165782928467
H 5.73223876953125 -4.399603843688965 5.1129374504089355
H 2.941831111907959 -4.488912105560303 3.27421498298645
H 8.310637474060059 -3.4461233615875244 -1.450837254524231
H 5.764363765716553 -5.482926845550537 -0.7358593344688416
H 8.442861557006836 -5.3861918449401855 1.2673448324203491
