16
Generated by QM7 dataset
C 1.8411223888397217 0.02732544019818306 -0.08207080513238907
C 4.71945858001709 -0.006292787846177816 -0.0094864247366786
C 5.775513172149658 -2.4092307090759277 1.228114128112793
C 6.403941631317139 -1.701055884361267 3.959845542907715
C 6.666613578796387 1.103770136833191 3.830437183380127
C 5.745731353759766 2.032702922821045 1.669629693031311
H 1.1273539066314697 -1.5138784646987915 -1.2652661800384521
H 1.1440024375915527 1.8100552558898926 -0.871900737285614
H 1.0192615985870361 -0.19250640273094177 1.8068428039550781
H 5.465201377868652 0.18704509735107422 -1.930600881576538
H 7.520845413208008 -2.970914125442505 0.2547917664051056
H 4.482940673828125 -4.02249002456665 1.1246894598007202
H 8.150464057922363 -2.6134157180786133 4.584173202514648
H 4.87332010269165 -2.219407796859741 5.252342700958252
H 7.452966690063477 2.2342231273651123 5.340517044067383
H 5.694160461425781 4.019334316253662 1.1900172233581543
