13
Generated by QM7 dataset
C 1.8127386569976807 0.06534673273563385 -0.01611936464905739
N 4.556413173675537 -0.16238416731357574 -0.13086353242397308
C 5.755784511566162 1.9377062320709229 0.0353945717215538
O 4.670609474182129 4.299051284790039 0.25749409198760986
N 6.658298969268799 6.040131568908691 0.48537614941596985
C 8.862796783447266 4.747596740722656 0.15834015607833862
C 8.51470947265625 2.266329765319824 -0.03915512561798096
H 0.9789159297943115 -1.8274974822998047 -0.04429518058896065
H 1.0748573541641235 1.0969293117523193 -1.6517529487609863
H 1.1924549341201782 0.9878543615341187 1.7304600477218628
H 6.456400394439697 7.586078643798828 -0.6463619470596313
H 10.633867263793945 5.764023780822754 0.07303791493177414
H 9.857529640197754 0.7703090906143188 -0.3024884760379791
