14
Generated by QM7 dataset
C 1.7094273567199707 0.09856811165809631 -0.019331898540258408
C 4.549893379211426 0.01434302143752575 -0.010979308746755123
C 5.702324390411377 -2.587998867034912 -0.01704533025622368
C 5.931888103485107 2.150489330291748 0.0
C 8.58884334564209 2.150489330291748 0.0
C 10.837919235229492 2.150489330291748 0.0
H 0.9827142953872681 2.035461902618408 -0.01678076758980751
H 0.9619272947311401 -0.8572364449501038 1.6559292078018188
H 0.9721696376800537 -0.8492996096611023 -1.703682541847229
H 4.243531227111816 -4.0535759925842285 0.05109819397330284
H 6.919118881225586 -2.859703779220581 1.6332902908325195
H 6.805830001831055 -2.895948648452759 -1.7386425733566284
H 5.001084804534912 3.980689287185669 0.004384164698421955
H 12.850383758544922 2.147050142288208 -0.0
