18
Generated by QM7 dataset
C 1.867351770401001 0.020635809749364853 -0.005858151242136955
C 4.734879016876221 -0.00026456164778210223 0.06525224447250366
C 5.8796563148498535 -2.0306997299194336 1.7730733156204224
N 7.450207710266113 -0.48008492588996887 3.526172161102295
C 8.617321014404297 1.5167319774627686 1.785980224609375
C 5.822170734405518 2.3008172512054443 1.3947312831878662
C 5.679931163787842 1.687015175819397 4.256513595581055
H 1.1540746688842773 -1.6950277090072632 -0.9119818210601807
H 1.1828173398971558 1.6526410579681396 -1.080356478691101
H 1.030580997467041 0.13364143669605255 1.883093237876892
H 5.473818302154541 -0.14773878455162048 -1.8671060800552368
H 7.066082954406738 -3.349822998046875 0.7074567675590515
H 4.464818000793457 -3.1203536987304688 2.8205296993255615
H 9.641949653625488 0.7812883853912354 0.1434680074453354
H 9.838443756103516 2.890695095062256 2.746924877166748
H 5.404428005218506 4.201900482177734 0.7319287061691284
H 6.512959957122803 3.086395263671875 5.541017055511475
H 3.850619316101074 1.1166013479232788 5.0364789962768555
