17
Generated by QM7 dataset
C 6.725365161895752 2.109198808670044 -0.9291027784347534
O 6.344982147216797 3.449354887008667 -3.2402188777923584
N 6.565002918243408 6.041038513183594 -2.677307367324829
C 4.123911380767822 7.305171012878418 -2.6812756061553955
C 8.690472602844238 7.131807327270508 -3.75439453125
C 9.015335083007812 9.965508460998535 -3.683321952819824
N 10.463942527770996 5.820942401885986 -4.831141471862793
H 6.997183322906494 0.11183398962020874 -1.3842244148254395
H 5.053902626037598 2.2913496494293213 0.27438822388648987
H 8.404840469360352 2.7857775688171387 0.0708269327878952
H 2.7254385948181152 6.186661243438721 -1.644458532333374
H 3.4439501762390137 7.567862033843994 -4.616808891296387
H 4.243493556976318 9.150469779968262 -1.7565760612487793
H 8.713772773742676 10.652612686157227 -1.7578043937683105
H 7.642411708831787 10.849257469177246 -4.9501566886901855
H 10.918610572814941 10.494877815246582 -4.28888463973999
H 9.871305465698242 3.9738106727600098 -4.726337432861328
