17
Generated by QM7 dataset
C 2.0755996704101562 1.794162631034851 2.697054862976074
C 4.8358845710754395 1.5393520593643188 2.1494688987731934
C 5.968322277069092 2.5271496772766113 0.1087726354598999
C 8.732197761535645 2.2366421222686768 -0.49454131722450256
C 10.137643814086914 4.691641807556152 -0.6021045446395874
C 11.84168529510498 5.5307183265686035 1.5173933506011963
O 12.833451271057129 4.417234897613525 -0.7481237053871155
H 1.2079507112503052 -0.07874488830566406 2.820416212081909
H 1.0840413570404053 2.866468906402588 1.2324604988098145
H 1.799983024597168 2.7602663040161133 4.5037841796875
H 5.935800075531006 0.46506160497665405 3.5157408714294434
H 4.85209846496582 3.5831663608551025 -1.2596347332000732
H 8.884017944335938 1.3158918619155884 -2.3443942070007324
H 9.633256912231445 0.9567872285842896 0.8649843335151672
H 9.274341583251953 6.092344760894775 -1.816102385520935
H 11.922981262207031 4.415231704711914 3.231015920639038
H 12.14039421081543 7.537493705749512 1.787510871887207
