15
Generated by QM7 dataset
C 3.0555737018585205 5.408150672912598 0.16850687563419342
C 5.218062877655029 4.01719856262207 -1.0189403295516968
O 5.009493827819824 2.6183667182922363 -2.845284938812256
O 7.385030746459961 4.5365519523620605 0.2555476725101471
C 9.637924194335938 3.3685503005981445 -0.6840052604675293
C 11.541596412658691 5.421151638031006 -1.1032977104187012
C 12.613600730895996 5.94260311126709 -3.3364815711975098
H 3.431251287460327 7.439247131347656 0.1492505669593811
H 2.771510124206543 4.738091468811035 2.1009974479675293
H 1.3332773447036743 5.051521301269531 -0.9171029925346375
H 9.33371639251709 2.2561440467834473 -2.4026734828948975
H 10.335988998413086 2.083782196044922 0.7808159589767456
H 12.055829048156738 6.540719985961914 0.5414443612098694
H 12.145326614379883 4.881937503814697 -5.030073165893555
H 13.977075576782227 7.46400260925293 -3.51781964302063
