11
Generated by QM7 dataset
N 1.7126587629318237 0.1525575965642929 -0.01753665879368782
C 3.9067819118499756 0.08207080513238907 -0.00914627406746149
C 6.606974124908447 -0.0048188017681241035 0.0011905274586752057
C 8.188674926757812 2.067889451980591 0.0077289799228310585
N 10.635001182556152 1.2083097696304321 0.016894152387976646
C 10.633923530578613 -1.383468508720398 0.01628943905234337
C 8.156927108764648 -2.189493417739868 0.006614041514694691
H 7.788638591766357 4.0740227699279785 0.006651835981756449
H 12.197993278503418 2.3134593963623047 0.023149145767092705
H 12.391746520996094 -2.4292051792144775 0.022790096700191498
H 7.537796497344971 -4.140370845794678 0.003798349527642131
