18
Generated by QM7 dataset
C 2.4849331378936768 0.39582204818725586 -0.5254761576652527
O 5.136181354522705 0.49384212493896484 -0.11378040909767151
C 6.073919773101807 3.012676954269409 -0.28636908531188965
C 8.856144905090332 2.954643487930298 0.19532209634780884
C 10.706016540527344 2.8936052322387695 -1.9694347381591797
C 10.447710037231445 5.237527370452881 -0.3881308436393738
N 12.493867874145508 5.94354772567749 1.3223170042037964
H 1.8586968183517456 -1.5578335523605347 -0.27778974175453186
H 2.0329861640930176 0.9956210851669312 -2.452127456665039
H 1.4889907836914062 1.5849889516830444 0.8432524800300598
H 5.157062530517578 4.188974857330322 1.1500306129455566
H 5.647219657897949 3.7897324562072754 -2.159144401550293
H 9.304595947265625 1.8594337701797485 1.8674651384353638
H 9.980645179748535 2.9502971172332764 -3.8852579593658447
H 12.38430118560791 1.7387747764587402 -1.7634168863296509
H 9.515395164489746 6.839164733886719 -1.2810453176498413
H 13.415789604187012 4.3892669677734375 1.9923949241638184
H 11.804041862487793 6.851674556732178 2.8754639625549316
