15
Generated by QM7 dataset
O 1.1099873781204224 0.1957189291715622 1.7093706130981445
C 3.5403831005096436 -0.6439241766929626 0.9147975444793701
C 5.205779552459717 1.646140456199646 0.4453706443309784
C 7.8201212882995605 0.8760392665863037 -0.4176105856895447
O 8.4456205368042 -1.345484972000122 -0.7003136277198792
C 9.737342834472656 2.8685097694396973 -0.957732081413269
C 9.352235794067383 5.356466293334961 -0.7293208837509155
H 0.09471307694911957 -1.312528133392334 1.9880675077438354
H 3.3155055046081543 -1.7696529626846313 -0.8071020245552063
H 4.334218978881836 -1.8521206378936768 2.395738124847412
H 5.354841232299805 2.752612829208374 2.189474582672119
H 4.332178115844727 2.845228433609009 -0.9995517134666443
H 11.555278778076172 2.146256446838379 -1.579149603843689
H 7.5725483894348145 6.167895793914795 -0.11576462537050247
H 10.865452766418457 6.673624515533447 -1.166017770767212
