19
Generated by QM7 dataset
C 1.8509678840637207 0.0020409042481333017 -0.024660926312208176
C 4.712391376495361 0.03189857676625252 0.06124602258205414
C 5.941185474395752 1.9906185865402222 1.8606998920440674
C 7.984735488891602 -0.00797464419156313 2.428921699523926
C 6.005398273468018 -2.047159194946289 1.7018306255340576
C 6.965662956237793 -4.3457465171813965 0.28457385301589966
O 8.374283790588379 -5.904865264892578 1.9612144231796265
H 1.1733686923980713 -1.6307770013809204 -1.0993481874465942
H 1.1323050260543823 1.7106934785842896 -0.9440504908561707
H 1.0283889770507812 -0.09639493376016617 1.8724162578582764
H 5.500010013580322 0.14974190294742584 -1.8568826913833618
H 4.78903865814209 2.4863126277923584 3.511092185974121
H 6.615137577056885 3.728297472000122 0.9692027568817139
H 9.61745834350586 0.09628154337406158 1.1589123010635376
H 8.656438827514648 -0.06738763302564621 4.3809332847595215
H 4.842914581298828 -2.611412525177002 3.3310959339141846
H 8.175484657287598 -3.8325912952423096 -1.3139455318450928
H 5.38407564163208 -5.464180946350098 -0.44043847918510437
H 9.844339370727539 -4.945318698883057 2.5038115978240967
