14
Generated by QM7 dataset
C 7.9945807456970215 -1.306688904762268 5.04732608795166
C 7.913662910461426 -0.7951022982597351 2.836611270904541
C 7.812297821044922 -0.17086903750896454 0.1324886977672577
C 8.286977767944336 2.6369237899780273 -0.3515268564224243
C 10.996392250061035 3.4335567951202393 0.27210167050361633
C 11.400585174560547 6.114416599273682 -0.3238612711429596
N 11.719099044799805 8.231457710266113 -0.8016974329948425
H 8.05936050415039 -1.7622451782226562 7.007879257202148
H 5.940637588500977 -0.6684716939926147 -0.6039186716079712
H 9.18903923034668 -1.3138887882232666 -0.9107534885406494
H 6.946141719818115 3.7834208011627197 0.7414718270301819
H 7.903514862060547 3.0317821502685547 -2.352142095565796
H 12.333996772766113 2.2801623344421387 -0.8103712797164917
H 11.402928352355957 3.118218183517456 2.2773845195770264
