17
Generated by QM7 dataset
C 8.030996322631836 -2.279879093170166 1.3151359558105469
C 6.047123432159424 -0.3206865191459656 0.6175057888031006
N 7.180770397186279 2.1381683349609375 0.09998541325330734
O 7.949699878692627 3.4256954193115234 2.2928802967071533
C 6.197243690490723 5.444905757904053 2.671581506729126
C 8.731063842773438 2.5409257411956787 -1.9363645315170288
N 10.461958885192871 4.241188049316406 -2.1544389724731445
H 7.127404689788818 -4.088913917541504 1.7488847970962524
H 9.121047019958496 -1.6886025667190552 2.96989369392395
H 9.35818862915039 -2.5877342224121094 -0.24220620095729828
H 4.677128791809082 -0.14310896396636963 2.161752223968506
H 4.990558624267578 -0.9572029709815979 -1.046492576599121
H 6.817300319671631 6.532745361328125 4.314263820648193
H 4.305098533630371 4.700618267059326 3.049299955368042
H 6.157351493835449 6.705031871795654 1.0290125608444214
H 8.36931324005127 1.232139229774475 -3.518972396850586
H 10.493857383728027 5.191153049468994 -0.4631529748439789
