16
Generated by QM7 dataset
C 3.963265895843506 -0.6703992486000061 2.706352472305298
C 4.312071800231934 0.27367013692855835 0.02150508388876915
C 5.630155563354492 2.8109676837921143 0.024509748443961143
C 4.012549877166748 5.162070274353027 0.4141523838043213
O 4.210536479949951 6.796041011810303 -1.7004700899124146
N 8.075159072875977 2.8552815914154053 -0.24921707808971405
O 9.028714179992676 5.321298599243164 -0.17304222285747528
H 3.023221731185913 -2.513411283493042 2.7085065841674805
H 2.81463360786438 0.6439430713653564 3.8192877769470215
H 5.7873430252075195 -0.8730345964431763 3.6641411781311035
H 2.4824764728546143 0.4570302665233612 -0.9245674014091492
H 5.445491313934326 -1.0798083543777466 -1.0589269399642944
H 4.635385036468506 6.161433219909668 2.1154351234436035
H 2.028148651123047 4.6409406661987305 0.6511051654815674
H 6.02813196182251 7.039437770843506 -1.9279742240905762
H 10.84931468963623 5.03904914855957 -0.3062868118286133
