17
Generated by QM7 dataset
C 3.359347343444824 -1.1729719638824463 -0.09626264870166779
O 3.2893896102905273 1.4488719701766968 0.49306735396385193
C 5.711149215698242 2.6504921913146973 0.2716481387615204
C 6.319584369659424 3.809215545654297 -2.242405652999878
C 5.6889262199401855 5.468225002288818 -0.026796316727995872
O 7.79859733581543 1.5566997528076172 1.6161882877349854
C 7.590444087982178 1.8254754543304443 4.28187370300293
H 4.359466075897217 -1.5086439847946167 -1.874324917793274
H 1.4180693626403809 -1.8481899499893188 -0.29069656133651733
H 4.268834590911865 -2.217858076095581 1.4393855333328247
H 4.934981822967529 3.6432785987854004 -3.7371790409088135
H 8.265246391296387 3.748290777206421 -2.8726861476898193
H 7.2073211669921875 6.54436731338501 0.8205001950263977
H 3.8716330528259277 6.408647060394287 -0.01551465131342411
H 9.023555755615234 0.6298646330833435 5.164451599121094
H 5.730292320251465 1.224542498588562 4.950496673583984
H 7.939533233642578 3.78763484954834 4.823337078094482
