15
Generated by QM7 dataset
C 1.641586184501648 -0.10673173516988754 -0.006330582778900862
C 4.177731037139893 -0.023073555901646614 -0.026588447391986847
C 5.5810980796813965 2.4818906784057617 -0.07600478827953339
C 8.419599533081055 2.2448246479034424 -0.0320686511695385
C 9.611562728881836 0.009335246868431568 0.01126276794821024
C 8.19166088104248 -2.3171064853668213 0.01670517958700657
C 5.658803939819336 -2.339613199234009 0.0012850137427449226
H 0.5262698531150818 1.6153000593185425 -0.0252845361828804
H 0.6098146438598633 -1.8791625499725342 0.031501736491918564
H 5.004542827606201 3.61784291267395 1.5586838722229004
H 5.049952983856201 3.524244785308838 -1.7876052856445312
H 9.508743286132812 3.9827113151550293 -0.0379645973443985
H 11.65970516204834 -0.1020830050110817 0.04221648350358009
H 9.248641014099121 -4.076158046722412 0.038512617349624634
H 4.666149616241455 -4.136345863342285 0.0124343978241086
