18
Generated by QM7 dataset
C 4.383370876312256 -1.54167640209198 -1.722409725189209
O 3.7000269889831543 0.8240906596183777 -0.651331901550293
C 5.852652072906494 2.431699514389038 -0.19097572565078735
C 6.404697418212891 4.462210178375244 -2.1109564304351807
C 4.913514614105225 4.699805736541748 -4.489667892456055
C 5.2192158699035645 5.159897327423096 0.37492167949676514
N 6.69745397567749 6.5972795486450195 2.223546266555786
H 2.6588258743286133 -2.621182441711426 -2.0801916122436523
H 5.573199272155762 -2.603910446166992 -0.4066501557826996
H 5.3787841796875 -1.2639622688293457 -3.513265371322632
H 7.4450483322143555 1.6205157041549683 0.8176655769348145
H 8.369087219238281 4.950364589691162 -2.4211926460266113
H 2.8977060317993164 4.332065105438232 -4.203393459320068
H 5.617948055267334 3.3671329021453857 -5.905961036682129
H 5.10692834854126 6.611225605010986 -5.2567644119262695
H 3.222720146179199 5.654722213745117 0.3475395441055298
H 8.531810760498047 6.01673698425293 2.271564245223999
H 6.0008063316345215 6.3050336837768555 3.9970920085906982
