19
Generated by QM7 dataset
C 5.265003681182861 -2.440373420715332 1.8156111240386963
C 4.649028778076172 -0.4518713057041168 -0.19356465339660645
N 1.887779712677002 -0.13014544546604156 -0.33608779311180115
C 5.9421305656433105 2.115945339202881 0.35479608178138733
N 8.714075088500977 1.8790302276611328 0.40026289224624634
C 9.947745323181152 2.8152384757995605 -1.8829987049102783
C 9.997803688049316 4.317948818206787 0.5344712138175964
H 7.291961669921875 -2.864220142364502 1.8526874780654907
H 4.278170108795166 -4.218832492828369 1.4277069568634033
H 4.711691856384277 -1.8026286363601685 3.7053372859954834
H 5.292745113372803 -1.1466102600097656 -2.0368034839630127
H 1.2170970439910889 0.39349767565727234 1.3934084177017212
H 1.0751030445098877 -1.8360579013824463 -0.7149211764335632
H 5.31683874130249 2.807471513748169 2.2093923091888428
H 5.291535377502441 3.5123960971832275 -1.0392926931381226
H 8.79516315460205 3.490966558456421 -3.434293746948242
H 11.6580228805542 1.8349429368972778 -2.438030242919922
H 11.734821319580078 4.344726085662842 1.6147898435592651
H 8.862550735473633 6.01533842086792 0.6597411632537842
