17
Generated by QM7 dataset
C 1.8911244869232178 -0.10147829353809357 0.0057636648416519165
C 4.762109756469727 0.0 0.0
C 5.672995567321777 2.5722384452819824 0.0
C 6.423746109008789 4.692322254180908 0.0
C 7.33463191986084 7.264560699462891 0.0
C 5.16996955871582 9.167137145996094 -0.055520154535770416
O 6.123411655426025 11.687143325805664 0.0252845361828804
H 1.242098093032837 -2.065300703048706 0.005669178441166878
H 1.105924367904663 0.8352022767066956 -1.6649432182312012
H 1.112708568572998 0.8327834010124207 1.680987000465393
H 5.471777439117432 -1.0068838596343994 -1.6644896268844604
H 5.478542804718018 -1.0092837810516357 1.66012442111969
H 8.576899528503418 7.600440502166748 -1.6241440773010254
H 8.507678985595703 7.614008903503418 1.6723508834838867
H 3.8852014541625977 8.907450675964355 1.5477423667907715
H 4.059093952178955 8.967752456665039 -1.7906099557876587
H 6.920800685882568 11.920751571655273 1.6665116548538208
