11
Generated by QM7 dataset
C 1.8525174856185913 -0.3434199392795563 0.010847028344869614
C 4.674294471740723 -0.06850257515907288 0.006462863180786371
C 5.931888103485107 2.150489330291748 0.0
C 4.603410720825195 4.451476573944092 0.0
N 3.5158731937408447 6.335174560546875 0.0
C 8.58884334564209 2.150489330291748 0.0
N 10.763936996459961 2.150489330291748 0.0
H 1.3415732383728027 -2.349458694458008 -0.017687836661934853
H 1.0155388116836548 0.5357940793037415 -1.664867639541626
H 1.0273685455322266 0.48694461584091187 1.7149075269699097
H 5.730651378631592 -1.8373996019363403 0.011073795147240162
