21
Generated by QM7 dataset
C 6.438655853271484 4.624972343444824 -4.060530185699463
C 6.566439151763916 5.039899826049805 -1.2178339958190918
C 8.03158187866211 2.9699501991271973 0.1814137101173401
C 10.776956558227539 2.702308416366577 -0.5847190618515015
C 11.650936126708984 0.5239643454551697 -1.5578335523605347
C 12.510893821716309 4.949173927307129 -0.22914819419384003
C 12.809621810913086 5.726777076721191 2.5246741771698
H 5.255763053894043 6.0784173011779785 -4.93668270111084
H 5.6178154945373535 2.7789933681488037 -4.504162311553955
H 8.312433242797852 4.733121395111084 -4.927989959716797
H 4.633438587188721 5.089901924133301 -0.47086307406425476
H 7.390284061431885 6.899730205535889 -0.828550398349762
H 7.035431385040283 1.1701372861862183 -0.09172730892896652
H 7.9400811195373535 3.346327066421509 2.217385768890381
H 10.428869247436523 -1.1025795936584473 -1.8262501955032349
H 13.613530158996582 0.3036034107208252 -2.1153595447540283
H 11.807235717773438 6.554533958435059 -1.332200288772583
H 14.39493179321289 4.526517868041992 -0.9871740341186523
H 11.02723217010498 6.415733814239502 3.315770149230957
H 14.194413185119629 7.255716800689697 2.6824851036071777
H 13.468437194824219 4.144263744354248 3.683303117752075
