17
Generated by QM7 dataset
C 2.0010688304901123 -0.12417390197515488 -0.01345484983175993
C 4.815097808837891 -0.05391388759016991 -0.10937734693288803
C 6.199284553527832 -1.1148627996444702 -2.3607025146484375
C 6.142724990844727 1.706517219543457 -1.923363208770752
C 8.464178085327148 3.0919320583343506 -1.1127651929855347
N 9.947745323181152 3.6335842609405518 -3.3613502979278564
H 1.2970890998840332 1.3544989824295044 1.249165654182434
H 1.3604137897491455 -1.9513312578201294 0.7126913070678711
H 1.150333046913147 0.1619684249162674 -1.8776129484176636
H 5.641399383544922 -0.3552307188510895 1.7416282892227173
H 5.109857082366943 -1.8499096632003784 -3.932954788208008
H 7.946241855621338 -2.128190755844116 -2.0165834426879883
H 4.981242656707764 2.843376398086548 -3.1754767894744873
H 9.590794563293457 1.9819825887680054 0.22277981042861938
H 7.932390213012695 4.861793041229248 -0.1838703602552414
H 10.453076362609863 1.9716079235076904 -4.191450595855713
H 11.587479591369629 4.494675636291504 -2.8406362533569336
