14
Generated by QM7 dataset
C 3.480327606201172 -3.5533275604248047 0.46583637595176697
S 3.552004814147949 -0.37133118510246277 -0.6182428002357483
O 4.217698574066162 1.223994493484497 1.5007827281951904
O 4.94728422164917 -0.28378018736839294 -2.9674370288848877
N 0.4764944314956665 0.15614807605743408 -1.1835922002792358
C -0.49716803431510925 -0.39848655462265015 -3.593881130218506
C -2.874519109725952 0.3365035355091095 -3.979612112045288
H 2.7948105335235596 -4.768005847930908 -1.0535789728164673
H 2.2565975189208984 -3.6708874702453613 2.122162342071533
H 5.405788421630859 -4.092636585235596 0.9778009653091431
H -0.41439804434776306 1.3394756317138672 0.04867934435606003
H 0.6573412418365479 -1.3557462692260742 -4.995698928833008
H -3.9997942447662354 1.2934798002243042 -2.559558391571045
H -3.7686052322387695 -0.010847028344869614 -5.793616771697998
