16
Generated by QM7 dataset
C 2.1937074661254883 -0.7365018725395203 0.8872830867767334
C 4.819765567779541 -0.47033393383026123 -0.22389474511146545
O 5.822378635406494 1.9188090562820435 0.5294067859649658
N 8.445281028747559 1.898626685142517 0.1518772840499878
C 9.340953826904297 4.0735883712768555 0.8316117525100708
C 12.150107383728027 4.579694747924805 0.7558715343475342
O 13.494232177734375 2.7785778045654297 -0.6880682110786438
H 1.3486407995224 -2.546386957168579 0.3600873053073883
H 0.9641382694244385 0.7938172817230225 0.23547877371311188
H 2.2667453289031982 -0.6109106540679932 2.9515254497528076
H 4.741927623748779 -0.546319842338562 -2.290877103805542
H 6.028018474578857 -2.0053963661193848 0.4665167033672333
H 8.123573303222656 5.596121788024902 1.578412652015686
H 12.863025665283203 4.571398735046387 2.6960911750793457
H 12.465805053710938 6.457080841064453 -0.04782896861433983
H 12.503334999084473 1.2206307649612427 -0.5985896587371826
