16
Generated by QM7 dataset
C 1.8752130270004272 -0.02632388472557068 0.06266331672668457
C 4.7382426261901855 0.035130009055137634 0.03592369332909584
C 5.864424705505371 2.202343463897705 1.5904501676559448
C 8.445242881774902 1.1989556550979614 2.337817907333374
N 8.020602226257324 -1.459359884262085 2.5922317504882812
C 5.916146755218506 -2.264043092727661 1.274280071258545
O 5.231593608856201 -4.452799320220947 1.0828508138656616
H 1.1682097911834717 -1.6049065589904785 -1.072929859161377
H 1.0951719284057617 1.7257546186447144 -0.7108016014099121
H 1.1422827243804932 -0.27293315529823303 1.9825494289398193
H 5.436307430267334 0.1231156587600708 -1.9135366678237915
H 4.7268476486206055 2.545631170272827 3.29122257232666
H 5.978696823120117 3.9745664596557617 0.5318067073822021
H 9.8507080078125 1.4925812482833862 0.849866509437561
H 9.131875038146973 1.9851384162902832 4.118582725524902
H 9.193479537963867 -2.719296932220459 3.428473472595215
