16
Generated by QM7 dataset
C -3.2523698806762695 1.7667804956436157 0.7238596081733704
C -2.5210459232330322 -0.7179447412490845 -0.38926467299461365
N -0.5817332863807678 -2.4299988746643066 0.5356995463371277
C 1.4543709754943848 -1.1262201070785522 -0.8176277875900269
C 3.817681312561035 -0.18768760561943054 0.21890588104724884
C 1.6899632215499878 1.7100887298583984 -0.04442746192216873
C -1.061629295349121 1.67416512966156 -1.1216092109680176
H -5.000461101531982 2.6181399822235107 0.07817797362804413
H -2.873706579208374 2.0840277671813965 2.708997964859009
H -3.7916598320007324 -1.5142942667007446 -1.7940492630004883
H -0.3667013645172119 -2.2502858638763428 2.442263126373291
H 1.613788366317749 -1.6689115762710571 -2.808964490890503
H 4.359617233276367 -0.804172933101654 2.096311092376709
H 5.414632320404053 0.024169597774744034 -1.048136591911316
H 1.5943052768707275 2.5783989429473877 1.8273085355758667
H -1.3689743280410767 2.4508614540100098 -2.99674654006958
