14
Generated by QM7 dataset
C 1.8362280130386353 0.051135990768671036 -0.27440711855888367
C 4.676108360290527 -0.0345819890499115 0.14038775861263275
N 5.428276062011719 -2.2221667766571045 1.5445865392684937
C 6.678216457366943 -1.6375232934951782 3.7379350662231445
O 7.585209369659424 -3.105368137359619 5.250566482543945
C 6.746870517730713 1.1286767721176147 3.923146963119507
C 5.604795455932617 2.01499605178833 1.8469427824020386
H 1.217002511024475 -1.5719120502471924 -1.400551676750183
H 1.2876404523849487 1.776947259902954 -1.2762643098831177
H 0.7963305711746216 -0.008333692327141762 1.5160706043243408
H 5.692252159118652 -0.022752301767468452 -1.6618818044662476
H 5.260562896728516 -4.03450870513916 0.9669161438941956
H 7.600308418273926 2.1396613121032715 5.463292598724365
H 5.3827338218688965 4.0013628005981445 1.4271401166915894
