17
Generated by QM7 dataset
C 1.564957857131958 0.3189101815223694 0.29150915145874023
C 4.294137954711914 -0.4740566909313202 0.07899054884910583
C 4.686426162719727 -3.2890493869781494 0.10217749327421188
C 6.132444858551025 1.2768501043319702 -0.11897715926170349
C 8.926008224487305 0.8708803057670593 -0.3763578534126282
C 10.216048240661621 1.9458321332931519 1.9284844398498535
O 11.251485824584961 4.021620750427246 1.971267819404602
H 1.3402127027511597 2.3762171268463135 0.28453606367111206
H 0.7465552091598511 -0.39423465728759766 2.0530362129211426
H 0.4746803045272827 -0.4379251301288605 -1.2957285642623901
H 3.7806050777435303 -4.1443772315979 -1.5504069328308105
H 3.8419077396392822 -4.1100029945373535 1.8042916059494019
H 6.67326545715332 -3.844043016433716 0.08394163846969604
H 5.58540678024292 3.2667696475982666 -0.12715966999530792
H 9.618857383728027 1.8659911155700684 -2.053527593612671
H 9.483458518981934 -1.10643470287323 -0.5614943504333496
H 10.121845245361328 0.7644698023796082 3.645338296890259
