14
Generated by QM7 dataset
N 6.659886360168457 -1.9821147918701172 -1.037572979927063
S 5.016958236694336 0.3549472689628601 0.34687814116477966
O 2.9416799545288086 0.8769652247428894 -1.3454283475875854
O 4.62799596786499 -0.45909005403518677 2.922140121459961
C 7.109792232513428 3.052398920059204 0.45822077989578247
C 7.295212268829346 4.526215553283691 -1.9681875705718994
C 5.818315505981445 5.575069904327393 0.22642698884010315
H 6.8035054206848145 -3.4564034938812256 0.20170937478542328
H 5.747299671173096 -2.5015060901641846 -2.6580886840820312
H 8.758767127990723 2.8927738666534424 1.648634910583496
H 6.245752811431885 3.897371292114258 -3.6126272678375244
H 9.093305587768555 5.397927284240723 -2.419529676437378
H 6.618312358856201 7.153161525726318 1.2593324184417725
H 3.7757484912872314 5.645575523376465 0.06455304473638535
