12
Generated by QM7 dataset
N 1.889726161956787 0.0 0.0
C 4.064819812774658 0.0 0.0
C 6.721774578094482 0.0 0.0
C 8.193323135375977 -2.026296615600586 -0.16485971212387085
O 10.761650085449219 -1.5718553066253662 -0.18789547681808472
C 10.916910171508789 1.1383332014083862 -0.49609091877937317
C 8.344104766845703 2.272282361984253 0.15070566534996033
H 7.6732330322265625 -3.9937093257904053 -0.2505587935447693
H 11.429347038269043 1.5278246402740479 -2.467982292175293
H 12.41661548614502 1.8784255981445312 0.7195132374763489
H 7.82153844833374 3.760819673538208 -1.185009479522705
H 8.334844589233398 3.057992696762085 2.0653951168060303
