17
Generated by QM7 dataset
N 2.035820960998535 0.2613302171230316 -0.67111736536026
C 4.7779645919799805 0.06215309351682663 -0.25668150186538696
C 6.334286212921143 -1.3715821504592896 -2.139547824859619
C 6.552077293395996 1.4742887020111084 -2.024425745010376
N 5.367785930633545 2.947065591812134 -4.12455415725708
C 8.92888069152832 2.623563528060913 -0.9081456661224365
O 10.391169548034668 3.7061686515808105 -2.89453125
H 1.3375481367111206 1.7930099964141846 0.27113789319992065
H 1.133325457572937 -1.2710864543914795 0.07383160293102264
H 5.343654155731201 -0.09231311827898026 1.713320255279541
H 5.384207725524902 -2.2229037284851074 -3.7416956424713135
H 7.89332914352417 -2.4983692169189453 -1.435341477394104
H 3.450847864151001 2.6972815990448 -3.9456915855407715
H 5.791821479797363 2.0870325565338135 -5.800004005432129
H 10.092819213867188 1.2288322448730469 0.0800676941871643
H 8.435718536376953 4.130374431610107 0.42106878757476807
H 9.121330261230469 4.484924793243408 -3.9899487495422363
