13
Generated by QM7 dataset
C 2.014277935028076 0.013492644764482975 -0.007804568856954575
C 4.830687999725342 0.039665352553129196 -0.03632053732872009
N 6.187227725982666 -1.9912233352661133 -0.13275326788425446
O 8.746824264526367 -1.200864315032959 -0.06372156739234924
C 8.7982816696167 1.4322423934936523 -0.679810106754303
C 6.275081157684326 2.4318885803222656 0.16495420038700104
H 1.3073314428329468 -1.9165980815887451 -0.20868246257305145
H 1.302720546722412 1.1642224788665771 -1.5676978826522827
H 1.3426693677902222 0.8023210167884827 1.7784401178359985
H 9.059025764465332 1.620062232017517 -2.7244560718536377
H 10.375276565551758 2.351008176803589 0.2875029444694519
H 5.541224956512451 3.9294209480285645 -1.048117756843567
H 6.28859281539917 3.040644884109497 2.1403982639312744
