12
Generated by QM7 dataset
C 1.6205157041549683 0.2765992283821106 0.20376916229724884
N 4.33351993560791 0.251390278339386 -0.03616935759782791
C 5.891334533691406 2.299928903579712 -0.21370913088321686
C 4.717153072357178 4.883335590362549 -0.029063988476991653
O 8.178545951843262 1.9970815181732178 -0.4699181914329529
H 0.9800875782966614 -1.6372965574264526 0.6371778845787048
H 0.7967841029167175 0.9022308588027954 -1.5838550329208374
H 1.0595694780349731 1.5654680728912354 1.7161736488342285
H 5.2373948097229 -1.4269700050354004 -0.2243293821811676
H 3.0397188663482666 5.018205642700195 -1.2247503995895386
H 6.076716899871826 6.296265125274658 -0.6810194849967957
H 4.223216533660889 5.280026912689209 1.9361945390701294
