16
Generated by QM7 dataset
C 1.748544692993164 -0.14310896396636963 -0.14233417809009552
C 4.516388893127441 0.2992759346961975 -0.39527401328086853
C 6.144652366638184 -1.102485179901123 -2.2312374114990234
C 5.150278568267822 -3.072789192199707 -3.977627754211426
N 5.435324668884277 1.4784272909164429 -2.6558966636657715
C 7.207925796508789 3.397198438644409 -2.5479743480682373
O 7.250595569610596 5.253722190856934 -3.9274744987487793
H 0.8651355504989624 1.4556370973587036 0.8287205100059509
H 1.4016287326812744 -1.8437302112579346 0.9817883372306824
H 0.8023399114608765 -0.36643680930137634 -1.9675639867782593
H 5.359471321105957 0.9377009868621826 1.3593555688858032
H 8.106358528137207 -1.4273290634155273 -1.7381511926651
H 3.3385791778564453 -2.550506591796875 -4.827342987060547
H 4.9020819664001465 -4.858675003051758 -2.964961290359497
H 6.494119644165039 -3.3931922912597656 -5.517452239990234
H 8.637371063232422 3.1062374114990234 -1.057641863822937
