16
Generated by QM7 dataset
C 1.8773106336593628 0.06563019007444382 0.0952799916267395
C 4.740944862365723 -0.053762707859277725 0.02715536393225193
N 5.946590423583984 1.8871561288833618 1.6778689622879028
C 7.922714710235596 -0.0023432604502886534 2.31430983543396
C 6.026298999786377 -2.123957633972168 1.6618062257766724
C 7.028458595275879 -4.288922309875488 0.32008180022239685
C 7.851774215698242 -6.089944839477539 -0.7846142649650574
H 1.0672228336334229 -1.532019853591919 -0.9405544996261597
H 1.1922471523284912 1.803573489189148 -0.7953101396560669
H 1.141659140586853 0.0012661165092140436 2.0292446613311768
H 5.4429402351379395 0.04257553070783615 -1.9261223077774048
H 4.870164394378662 2.395681381225586 3.195829153060913
H 9.586731910705566 0.12088578194379807 1.0835689306259155
H 8.558985710144043 0.05204305797815323 4.281174659729004
H 4.889250755310059 -2.678724527359009 3.3101577758789062
H 8.583419799804688 -7.689938068389893 -1.7667427062988281
