15
Generated by QM7 dataset
C 6.989076614379883 -1.7887202501296997 -2.992929458618164
S 5.645046710968018 -0.7338562607765198 -0.09830355644226074
O 2.9192111492156982 -0.8204624056816101 -0.3971637487411499
O 6.853450775146484 -2.1116178035736084 1.9439802169799805
C 6.542080879211426 2.5320630073547363 0.09478866308927536
C 9.36758041381836 2.7856075763702393 0.15055447816848755
C 10.712082862854004 4.150821208953857 -1.5043164491653442
H 9.045098304748535 -1.7327088117599487 -2.855621814727783
H 6.317051887512207 -0.5753838419914246 -4.51954460144043
H 6.3667707443237305 -3.7303004264831543 -3.3137481212615967
H 5.724396228790283 3.2778244018554688 1.8408011198043823
H 5.68465518951416 3.5070481300354004 -1.5139729976654053
H 10.353166580200195 1.8085434436798096 1.6744484901428223
H 9.829183578491211 5.18949031829834 -3.0393033027648926
H 12.756633758544922 4.275108337402344 -1.3409496545791626
