17
Generated by QM7 dataset
C 1.8929386138916016 -0.1020641103386879 0.005518000107258558
C 4.762109756469727 0.0 0.0
C 5.672995567321777 2.5722384452819824 0.0
C 6.423746109008789 4.692322254180908 0.0
C 7.33463191986084 7.264560699462891 0.0
O 5.254024505615234 8.950763702392578 -0.31078436970710754
C 6.051356792449951 11.512967109680176 -0.3231242597103119
H 1.2422682046890259 -2.0666990280151367 0.005366822239011526
H 1.105470895767212 0.8345786333084106 -1.6657369136810303
H 1.1119904518127441 0.8321409225463867 1.6811949014663696
H 5.4720234870910645 -1.006902813911438 -1.6643952131271362
H 5.4785051345825195 -1.0092271566390991 1.6601999998092651
H 8.681325912475586 7.54826545715332 -1.5474778413772583
H 8.29438591003418 7.685232639312744 1.7862447500228882
H 4.386394500732422 12.711960792541504 -0.5658974051475525
H 7.349315166473389 11.861602783203125 -1.8947906494140625
H 6.95791482925415 11.999571800231934 1.4706794023513794
