15
Generated by QM7 dataset
C 1.8537834882736206 -2.5840115547180176 0.18086569011211395
C -0.954859733581543 -2.857133626937866 0.030160028487443924
C -2.809663772583008 -1.144096851348877 -0.06079249083995819
C -2.63297438621521 1.5642207860946655 0.0029479728545993567
C -0.5744767189025879 3.024015426635742 0.0029479728545993567
C 2.0393924713134766 2.2933337688446045 -0.06164286658167839
C 3.0423266887664795 -0.024018419906497 0.029385240748524666
H 2.6562745571136475 -3.7170157432556152 -1.3603004217147827
H 2.4844796657562256 -3.4734110832214355 1.9442447423934937
H -1.5552635192871094 -4.828250408172607 -0.010185623541474342
H -4.741889953613281 -1.8502875566482544 -0.16818562150001526
H -4.458166122436523 2.517171859741211 0.05162731930613518
H -0.870294451713562 5.062122821807861 0.05124937370419502
H 3.3458924293518066 3.883500576019287 -0.16975410282611847
H 5.101391315460205 -0.11088912934064865 -0.012037555687129498
