18
Generated by QM7 dataset
C 5.962520599365234 -2.0253140926361084 -1.7978098392486572
C 4.893993854522705 -0.1897096037864685 0.14632149040699005
O 5.144023418426514 -1.276944637298584 2.618612289428711
C 6.099431037902832 2.501600503921509 0.06869154423475266
N 4.863739490509033 4.106374740600586 1.976011037826538
C 8.943280220031738 2.480530023574829 0.4184609651565552
C 10.28390884399414 3.5801427364349365 2.2680492401123047
H 5.815953254699707 -1.2569891214370728 -3.710949659347534
H 4.918333530426025 -3.8118233680725098 -1.729212760925293
H 7.935716152191162 -2.498312473297119 -1.4055216312408447
H 2.858928918838501 -0.007388829253613949 -0.20305107533931732
H 6.928832054138184 -1.1854819059371948 3.065532684326172
H 5.72772216796875 3.3348186016082764 -1.7922918796539307
H 4.763489246368408 3.067932605743408 3.6047093868255615
H 3.0218231678009033 4.353607654571533 1.4666731357574463
H 10.001848220825195 1.4956048727035522 -1.045150876045227
H 9.384096145629883 4.655529499053955 3.7670366764068604
H 12.330973625183105 3.4672884941101074 2.297358989715576
