15
Generated by QM7 dataset
O 1.449571132659912 0.04155507683753967 -0.7379002571105957
C 4.0259480476379395 -0.10191293060779572 0.017064226791262627
C 5.2654194831848145 2.476353883743286 0.07972754538059235
C 4.015875816345215 4.625728130340576 -0.4603561758995056
C 7.976325988769531 2.4548676013946533 0.7447977662086487
C 8.727473258972168 3.1830925941467285 3.398237705230713
O 9.045476913452148 0.659835696220398 2.4824576377868652
H 0.7915306687355042 -1.6705745458602905 -0.6527113914489746
H 5.018545627593994 -1.3284775018692017 -1.32163667678833
H 4.0933356285095215 -0.9633445739746094 1.8975684642791748
H 2.025597333908081 4.610950469970703 -0.9616438150405884
H 4.953406810760498 6.4488606452941895 -0.41717594861984253
H 9.204118728637695 3.0602223873138428 -0.7838962078094482
H 7.27268648147583 3.4987144470214844 4.801964282989502
H 10.411672592163086 4.321709156036377 3.6471714973449707
