11
Generated by QM7 dataset
O 1.9824360609054565 -0.5576959848403931 -1.5578713417053223
C 3.9446144104003906 -0.09911613911390305 -0.5102638602256775
C 6.226288795471191 -1.465614914894104 0.9478866457939148
O 6.133937835693359 0.9396852254867554 2.445192337036133
C 5.9534687995910645 2.1390187740325928 -0.11735199391841888
C 8.198236465454102 1.2432318925857544 -1.5545265674591064
C 8.382333755493164 -1.187976360321045 -0.8362793922424316
H 5.899800777435303 -3.1785948276519775 2.0281107425689697
H 5.348775386810303 4.099155902862549 -0.12133931368589401
H 9.377728462219238 2.302177667617798 -2.8315467834472656
H 9.748662948608398 -2.593233346939087 -1.3855661153793335
