16
Generated by QM7 dataset
C 1.6991283893585205 -0.20049993693828583 0.6677536368370056
C 4.554145336151123 -0.5335641503334045 0.5634596347808838
C 5.929866313934326 1.949857234954834 0.02176964469254017
O 5.398683071136475 3.774028778076172 1.943432092666626
C 8.804593086242676 1.5779212713241577 -0.2006511241197586
N 10.129650115966797 3.7931904792785645 -0.36475494503974915
O 9.878316879272461 -0.4707496762275696 -0.2726685702800751
H 0.7790018320083618 -2.029395818710327 0.9637414216995239
H 0.9812024831771851 0.5995156168937683 -1.100009560585022
H 1.143530011177063 1.0476641654968262 2.220900535583496
H 5.020321846008301 -1.9289946556091309 -0.8947475552558899
H 5.189320087432861 -1.31196129322052 2.3761038780212402
H 5.2737531661987305 2.7346038818359375 -1.7800275087356567
H 5.846264839172363 2.994516611099243 3.550341844558716
H 9.268105506896973 5.449100971221924 0.06273891031742096
H 12.036194801330566 3.7057719230651855 -0.3869781196117401
