13
Generated by QM7 dataset
C 1.889726161956787 0.0 0.0
C 4.138802528381348 0.0 0.0
C 6.86756706237793 0.0 0.0
C 7.987626552581787 2.1112587451934814 1.5686994791030884
O 10.435218811035156 1.1852929592132568 2.227268934249878
C 10.074318885803223 -1.4825845956802368 2.4442663192749023
O 7.808291912078857 -2.2399301528930664 1.1939101219177246
H -0.12423059344291687 -0.02040904201567173 0.0032881235238164663
H 7.633548736572266 0.03618825599551201 -1.9239113330841064
H 6.940056800842285 2.4485559463500977 3.3242738246917725
H 8.143850326538086 3.897106647491455 0.5386286377906799
H 11.691754341125488 -2.459232807159424 1.604320764541626
H 9.94186782836914 -1.9950027465820312 4.442047119140625
