13
Generated by QM7 dataset
C 1.9065446853637695 -0.049302954226732254 -0.13621145486831665
C 4.720630168914795 0.03700083866715431 0.10264992713928223
C 6.00112771987915 2.324892282485962 0.15066786110401154
C 8.615299224853516 2.2975478172302246 0.3677029013633728
C 9.809114456176758 -0.015439062379300594 0.522754967212677
N 8.53515625 -2.217801570892334 0.4707685708999634
N 5.964712619781494 -2.1888697147369385 0.25756967067718506
H 1.2193458080291748 -2.000123977661133 -0.07498433440923691
H 1.3161565065383911 0.7858614921569824 -1.9334733486175537
H 1.0224741697311401 0.9908968210220337 1.4178614616394043
H 4.986268997192383 4.101386070251465 0.022223180159926414
H 9.693047523498535 4.03826904296875 0.4140389859676361
H 11.843650817871094 -0.17829565703868866 0.6948900818824768
