21
Generated by QM7 dataset
C 2.072406053543091 -0.4479973614215851 0.3643392026424408
C 4.932846546173096 -0.2890336215496063 0.11378040909767151
C 5.993625640869141 2.408134698867798 0.3954818844795227
C 5.294011116027832 3.7118000984191895 2.911992311477661
C 6.200361728668213 2.357546806335449 5.282861709594727
C 8.863099098205566 2.3660316467285156 -0.06689630448818207
O 9.901522636413574 4.840476989746094 0.03994880989193916
H 1.4294644594192505 -2.3660128116607666 -0.07069465517997742
H 1.1374828815460205 0.8521153330802917 -0.9447875022888184
H 1.45100736618042 -0.007162061985582113 2.2860395908355713
H 5.450896263122559 -1.0158411264419556 -1.7582200765609741
H 5.809944152832031 -1.5620853900909424 1.4924678802490234
H 5.15470027923584 3.5797839164733887 -1.100614309310913
H 3.23738431930542 3.9362616539001465 3.022843599319458
H 6.059369087219238 5.638375759124756 2.923689842224121
H 5.385832786560059 0.4646269679069519 5.437554836273193
H 5.624240875244141 3.4218215942382812 6.961391925811768
H 8.259879112243652 2.193915367126465 5.325531482696533
H 9.291594505310059 1.5807559490203857 -1.9341157674789429
H 9.840540885925293 1.1999382972717285 1.3336364030838013
H 9.043662071228027 5.854220390319824 -1.231685757637024
