11
Generated by QM7 dataset
C 1.6165661811828613 0.2919437885284424 -0.008409281261265278
C 3.8810062408447266 0.17154933512210846 -0.00173854804597795
C 6.572731971740723 0.0265506524592638 0.006406171713024378
C 8.176239967346191 2.079775810241699 0.009505322203040123
C 10.770796775817871 1.347374677658081 0.018198063597083092
C 11.049342155456543 -1.2406052350997925 0.021297212690114975
S 8.197196960449219 -2.76516056060791 0.013700514100492
H -0.39517953991889954 0.39094653725624084 -0.014305226504802704
H 7.526401042938232 4.021185874938965 0.005839253775775433
H 12.348169326782227 2.6518337726593018 0.02201530896127224
H 12.787436485290527 -2.3156137466430664 0.02766559086740017
