14
Generated by QM7 dataset
N 1.7871328592300415 -0.24411481618881226 -0.2252175658941269
C 4.514555931091309 -0.02396172657608986 -0.0011338356416672468
C 5.784357070922852 -2.325326919555664 -1.0344738960266113
C 7.38378381729126 -1.6069475412368774 -2.846494436264038
O 7.403720378875732 0.9681633710861206 -3.285799026489258
C 5.6431756019592285 2.036973476409912 -1.6418507099151611
C 5.119022369384766 4.507506847381592 -1.660918116569519
H 0.9854543805122375 1.3979249000549316 0.37153905630111694
H 1.170590877532959 -1.6099900007247925 0.9780277609825134
H 5.064768314361572 0.25501853227615356 1.9756519794464111
H 5.469528675079346 -4.237880706787109 -0.4124894142150879
H 8.62212085723877 -2.713590145111084 -4.014533996582031
H 6.071085453033447 5.76018762588501 -2.975128173828125
H 3.728656530380249 5.315931797027588 -0.39415907859802246
