10
Generated by QM7 dataset
C 2.1082730293273926 0.048376988619565964 0.13556894659996033
C 4.372183799743652 0.06536562740802765 -0.020862575620412827
C 7.058788299560547 0.09006434679031372 -0.21493744850158691
N 8.277812957763672 -2.002183675765991 -0.06691519916057587
O 10.832741737365723 -1.286242127418518 -0.3414546251296997
C 10.81263542175293 1.3977547883987427 -0.6788462996482849
O 8.296540260314941 2.2793688774108887 -0.5646501779556274
H 0.09894605726003647 0.020220069214701653 0.2680009603500366
H 11.631301879882812 1.8573362827301025 -2.5215938091278076
H 11.937418937683105 2.2800111770629883 0.8155680298805237
