15
Generated by QM7 dataset
C 5.921853542327881 -2.2047433853149414 -0.8394352197647095
C 4.667566776275635 0.11691735684871674 0.29719722270965576
C 6.461162567138672 2.3008737564086914 0.4487721621990204
N 6.854244709014893 3.9359216690063477 -1.7316505908966064
C 5.4724202156066895 4.984643936157227 0.4441990256309509
C 6.6562581062316895 6.806680202484131 2.080418348312378
N 7.558318614959717 8.26876163482666 3.44071888923645
H 4.590352535247803 -3.785877227783203 -0.9008135795593262
H 7.563534259796143 -2.7838499546051025 0.2792826294898987
H 6.570766925811768 -1.8288958072662354 -2.7679197788238525
H 4.005558013916016 -0.3340469002723694 2.207181215286255
H 2.992192268371582 0.6022179126739502 -0.8220497369766235
H 8.12894058227539 1.8793137073516846 1.5665640830993652
H 5.6359381675720215 3.5146639347076416 -3.1671998500823975
H 3.466362476348877 5.273828983306885 0.13934840261936188
