15
Generated by QM7 dataset
N 4.021299362182617 -0.8388494253158569 -2.4531478881835938
C 4.7912116050720215 -0.0607357993721962 0.06355149298906326
C 5.563051223754883 2.637471914291382 0.018065782263875008
C 4.14110803604126 4.811356067657471 -0.261197954416275
C 5.806202411651611 6.899446964263916 -0.14645376801490784
C 8.203017234802246 5.955660820007324 0.1990070641040802
N 8.040690422058105 3.373293399810791 0.293550044298172
H 3.7387475967407227 -2.738912343978882 -2.4784324169158936
H 5.438385963439941 -0.46184906363487244 -3.6970791816711426
H 6.3478546142578125 -1.2598614692687988 0.7169809937477112
H 3.2152745723724365 -0.3195337951183319 1.3800859451293945
H 2.11377215385437 4.868841648101807 -0.5314098596572876
H 5.306936740875244 8.876459121704102 -0.3044726848602295
H 10.009652137756348 6.89799165725708 0.3804963529109955
H 9.524030685424805 2.190192699432373 0.5278571844100952
