15
Generated by QM7 dataset
O 4.612424850463867 -0.7254847884178162 2.617100715637207
C 4.699370861053467 0.035621337592601776 0.04323693364858627
C 5.70290994644165 2.6646461486816406 -0.11440402269363403
C 7.963778495788574 3.3958189487457275 -0.9450520277023315
C 8.1670560836792 6.171372890472412 -0.7131070494651794
C 5.467865943908691 6.885444164276123 -0.0061227125115692616
O 4.115634441375732 4.618433952331543 0.6606293320655823
H 3.5853018760681152 -2.2432940006256104 2.6812756061553955
H 2.791144371032715 -0.046336084604263306 -0.7523377537727356
H 5.8974761962890625 -1.2968811988830566 -0.9901409149169922
H 9.450709342956543 2.161015272140503 -1.595798134803772
H 9.5044527053833 6.689422607421875 0.7778868675231934
H 8.753778457641602 7.081502914428711 -2.4734814167022705
H 4.487816333770752 7.772405624389648 -1.6014484167099
H 5.416729927062988 8.198992729187012 1.5917730331420898
