15
Generated by QM7 dataset
C 1.8826208114624023 0.04915177822113037 0.10278220474720001
C 4.74599027633667 -0.0716773122549057 0.016742972657084465
N 5.961216449737549 1.862419605255127 1.661484956741333
C 7.923149108886719 -0.02968759834766388 2.3171632289886475
C 6.037561416625977 -2.1411352157592773 1.6341217756271362
C 7.063493728637695 -4.256192207336426 0.26012080907821655
N 7.877663612365723 -5.976466655731201 -0.8317440748214722
H 1.0651441812515259 -1.5463818311691284 -0.9305578470230103
H 1.1931352615356445 1.7888147830963135 -0.781061589717865
H 1.1587800979614258 -0.017498863860964775 2.041112184524536
H 5.434568881988525 0.03152063116431236 -1.9410133361816406
H 4.887096405029297 2.418320417404175 3.1664628982543945
H 9.604249954223633 0.09826575964689255 1.1103086471557617
H 8.533001899719238 0.01736658252775669 4.29262638092041
H 4.900097846984863 -2.7282731533050537 3.269925355911255
