13
Generated by QM7 dataset
C 1.9165980815887451 -0.08071020245552063 0.17687836289405823
C 4.761505126953125 0.18929386138916016 -0.009599808603525162
C 5.957966327667236 2.2127180099487305 1.664527416229248
S 8.251848220825195 -0.0590350441634655 2.374138593673706
O 8.50053596496582 -0.4800660312175751 5.060535430908203
O 10.3491792678833 -0.0005669178208336234 0.6274835467338562
O 6.027545928955078 -1.8863056898117065 1.2482208013534546
H 1.2701605558395386 -1.7283812761306763 -0.8933869004249573
H 0.975023090839386 1.5895053148269653 -0.5987030267715454
H 1.3025126457214355 -0.3120126724243164 2.1390187740325928
H 5.371829986572266 0.30655136704444885 -1.9910532236099243
H 4.853837013244629 2.7936010360717773 3.3113861083984375
H 6.683677673339844 3.8715386390686035 0.6733283400535583
