14
Generated by QM7 dataset
N 3.880004644393921 -1.6394129991531372 2.188302755355835
C 2.831622362136841 0.07035450637340546 0.2874084413051605
C 4.553389549255371 2.302158832550049 -0.1476821005344391
C 3.822934865951538 4.714242935180664 0.09764214605093002
O 7.11973237991333 1.7750765085220337 -0.659117579460144
C 7.537966251373291 0.4910264313220978 -2.858229637145996
O 6.028585433959961 -0.030008850619196892 -4.525912761688232
H 2.614908456802368 -3.0539863109588623 2.5082712173461914
H 4.044580936431885 -0.6812651753425598 3.8507516384124756
H 0.9663114547729492 0.7063607573509216 0.9256067872047424
H 2.5310235023498535 -0.9704877734184265 -1.472795844078064
H 1.888214349746704 5.2094645500183105 0.5572613477706909
H 5.159008979797363 6.247963905334473 -0.16563449800014496
H 9.565528869628906 0.02893170714378357 -2.951997995376587
