12
Generated by QM7 dataset
C 1.6988637447357178 0.04028896242380142 -0.3492591977119446
N 4.40094518661499 0.05429183319211006 0.08067240566015244
C 5.876348972320557 2.189417839050293 0.06453415006399155
C 8.403215408325195 2.2854347229003906 0.0
C 9.73169231414795 4.5864410400390625 0.0
N 10.819230079650879 6.470119953155518 0.0
H 0.9268350601196289 -1.8235101699829102 0.1028577908873558
H 1.2811020612716675 0.45746490359306335 -2.331336259841919
H 0.751052737236023 1.4377036094665527 0.8463327288627625
H 5.305027961730957 -1.6009382009506226 -0.29816100001335144
H 4.775262355804443 3.931612968444824 0.12969189882278442
H 9.50849723815918 0.5641021728515625 -0.046846311539411545
