21
Generated by QM7 dataset
C 1.9673371315002441 -0.1812247335910797 -0.04189522936940193
N 4.716510772705078 -0.036887455731630325 -0.00017007534916047007
C 5.573066711425781 2.5930821895599365 -0.018613802269101143
C 8.463252067565918 2.6733009815216064 -0.000453534274129197
C 9.433267593383789 5.397076606750488 -0.003571582492440939
C 12.31734848022461 5.473043918609619 0.013606027700006962
N 13.20217514038086 8.08388900756836 0.018594905734062195
H 1.3828637599945068 -2.163698673248291 0.0030235617887228727
H 1.1903952360153198 0.6733283400535583 -1.7577098608016968
H 1.14373779296875 0.7483693361282349 1.61174738407135
H 5.425101280212402 -0.9584124088287354 -1.537178874015808
H 4.847185134887695 3.584035634994507 1.649901032447815
H 4.863153457641602 3.5665934085845947 -1.7051377296447754
H 9.204855918884277 1.6759225130081177 -1.6606724262237549
H 9.180610656738281 1.6860703229904175 1.6763383150100708
H 8.694856643676758 6.395664691925049 1.6574220657348633
H 8.711864471435547 6.3841753005981445 -1.6790595054626465
H 13.072369575500488 4.497604846954346 -1.6487482786178589
H 13.046347618103027 4.511777877807617 1.694800853729248
H 12.606363296508789 8.976576805114746 -1.581398367881775
H 15.128146171569824 8.10443115234375 -0.03809687867760658
