19
Generated by QM7 dataset
C 1.8446372747421265 0.07872599363327026 0.1761602759361267
C 4.694741249084473 -0.17806889116764069 -0.0006236096378415823
N 6.051715850830078 1.7957122325897217 1.4753658771514893
C 7.945183277130127 -0.13681617379188538 2.275362491607666
C 10.382760047912598 0.12816122174263 0.7605958580970764
C 5.938313007354736 -2.206425428390503 1.7052133083343506
N 6.965681552886963 -4.2818169593811035 0.18742303550243378
H 0.9202399253845215 -1.527333378791809 -0.7473300099372864
H 1.2008075714111328 1.8025530576705933 -0.7728034853935242
H 1.187636137008667 0.14142709970474243 2.1389243602752686
H 5.303610801696777 -0.20847459137439728 -1.9856864213943481
H 5.032756328582764 2.490734577178955 2.957402467727661
H 8.394673347473145 -0.022279871627688408 4.298427581787109
H 10.046993255615234 0.15979523956775665 -1.2813665866851807
H 11.664070129394531 -1.4421255588531494 1.1742947101593018
H 11.36383056640625 1.879446029663086 1.265814185142517
H 4.834278583526611 -2.79543399810791 3.3549818992614746
H 7.953309059143066 -3.7175447940826416 -1.3684073686599731
H 5.6147918701171875 -5.488993167877197 -0.46685683727264404
