17
Generated by QM7 dataset
C 2.8311877250671387 -0.2815502882003784 2.7557120323181152
C 5.526504039764404 -0.3506386876106262 1.7523808479309082
C 6.1684441566467285 1.8534811735153198 -0.018273651599884033
N 5.9341936111450195 4.351717948913574 1.2371091842651367
C 8.874985694885254 1.5857259035110474 -1.0811879634857178
N 9.769940376281738 3.7447001934051514 -2.1926491260528564
O 10.126361846923828 -0.3616935908794403 -1.062366247177124
H 2.4268240928649902 -2.009308099746704 3.820610523223877
H 1.4641786813735962 -0.14874035120010376 1.2090089321136475
H 2.5374298095703125 1.318783164024353 4.032052040100098
H 5.791065692901611 -2.1367132663726807 0.7324578762054443
H 6.848310947418213 -0.3972393274307251 3.3495583534240723
H 4.8892316818237305 1.826495885848999 -1.6489372253417969
H 6.951301097869873 4.296424865722656 2.877807140350342
H 4.100724697113037 4.600311279296875 1.7779676914215088
H 8.902103424072266 5.386040687561035 -1.7085013389587402
H 11.596115112304688 3.773253917694092 -2.745696544647217
