12
Generated by QM7 dataset
C 1.9433943033218384 0.14386485517024994 -1.137274980545044
O 4.466518878936768 -0.12109365314245224 -0.23466619849205017
C 5.758373260498047 2.1223702430725098 -0.2519571781158447
C 8.268571853637695 2.2077102661132812 0.0
C 9.597049713134766 4.508697509765625 0.0
C 10.721588134765625 6.456457138061523 0.0
H 1.062744140625 -1.7261892557144165 -1.1397316455841064
H 1.9271049499511719 0.873601496219635 -3.0744521617889404
H 0.8440083861351013 1.3776103258132935 0.10928285866975784
H 4.605432510375977 3.8014485836029053 -0.4505862891674042
H 9.328764915466309 0.46440020203590393 0.2108556479215622
H 11.730512619018555 8.198142051696777 0.0012472192756831646
