14
Generated by QM7 dataset
C 1.7829755544662476 -0.07216864079236984 0.018613802269101143
C 4.603089332580566 -0.005461308639496565 0.03412845358252525
C 5.931888103485107 2.150489330291748 0.0
C 8.58884334564209 2.150489330291748 0.0
C 10.837919235229492 2.150489330291748 0.0
C 13.566683769226074 2.150489330291748 0.0
H 1.1255587339401245 -2.0309832096099854 -0.08647386729717255
H 1.0246473550796509 0.9350742697715759 -1.6212149858474731
H 1.017919898033142 0.7604069113731384 1.7501698732376099
H 5.57869815826416 -1.8144205808639526 0.06871043890714645
H 4.971945285797119 3.964475393295288 -0.03346705064177513
H 14.311406135559082 4.079597473144531 -0.022072000429034233
H 14.31129264831543 1.1667547225952148 -1.6596330404281616
H 14.31129264831543 1.205002784729004 1.681723952293396
