16
Generated by QM7 dataset
O 3.609754800796509 5.784584045410156 -0.3842758238315582
C 4.674861431121826 3.7801513671875 -0.8750754594802856
C 5.709656238555908 2.0133330821990967 1.118358850479126
N 8.309844017028809 1.326927900314331 0.43896448612213135
C 10.10555648803711 3.3723485469818115 1.1680774688720703
C 11.883920669555664 1.281139850616455 2.135371685028076
C 9.443377494812012 -0.27106231451034546 2.456606149673462
H 4.823506832122803 3.107578992843628 -2.8443024158477783
H 4.514555931091309 0.3227652311325073 1.10269296169281
H 5.541754245758057 2.909252166748047 2.9791910648345947
H 9.463427543640137 4.664864540100098 2.657616376876831
H 10.835803031921387 4.484603404998779 -0.41373664140701294
H 13.179214477539062 0.5380050539970398 0.6994821429252625
H 12.936158180236816 1.6988071203231812 3.861485242843628
H 9.605969429016113 -2.2756083011627197 1.978996753692627
H 8.589995384216309 -0.0969807431101799 4.339151382446289
