11
Generated by QM7 dataset
N 1.90669584274292 0.034525297582149506 0.0
C 4.443199634552002 -0.0497753880918026 -0.0
N 5.884342670440674 -1.9863477945327759 0.0
C 5.83978271484375 2.266688585281372 -0.0
C 7.021768569946289 4.205151081085205 0.0
C 8.463459968566895 6.506950855255127 0.0
O 7.40812349319458 8.562765121459961 -0.0
H 0.9883456826210022 1.712602138519287 -0.0
H 0.8533058166503906 -1.553959608078003 0.0
H 4.801264762878418 -3.5834686756134033 -0.0
H 10.532313346862793 6.2808451652526855 0.0
