18
Generated by QM7 dataset
C 2.0808908939361572 -0.5341688990592957 0.9641004800796509
N 4.805403709411621 -0.1255912035703659 0.9623052477836609
C 5.524954319000244 2.527470827102661 0.4552161395549774
C 4.624897003173828 4.291114330291748 2.5749785900115967
C 8.432846069335938 2.663701295852661 0.16429279744625092
C 9.305691719055176 5.14423131942749 -0.7600289583206177
C 10.03610897064209 7.159813404083252 -1.4980803728103638
H 1.7005078792572021 -2.5628275871276855 1.1091936826705933
H 1.2013933658599854 0.1483246088027954 -0.7790585160255432
H 1.1718380451202393 0.35887789726257324 2.591078996658325
H 5.5814385414123535 -1.2518868446350098 -0.3979385197162628
H 4.65889310836792 3.131767511367798 -1.331482172012329
H 5.354538917541504 3.68744158744812 4.4161200523376465
H 2.5604844093322754 4.353494167327881 2.6888914108276367
H 5.252361297607422 6.2362284660339355 2.252931594848633
H 9.064676284790039 1.2221237421035767 -1.1873716115951538
H 9.353104591369629 2.2287240028381348 1.9706252813339233
H 10.692240715026855 8.953201293945312 -2.1429684162139893
