18
Generated by QM7 dataset
C 2.2249257564544678 -0.8597497940063477 1.9282009601593018
C 4.98381233215332 -1.3425558805465698 1.2922136783599854
C 6.129610061645508 0.8539294600486755 -0.18404042720794678
C 8.886834144592285 0.4074816405773163 -0.8328211903572083
O 10.067667007446289 -1.4868175983428955 -0.21620357036590576
N 9.929547309875488 2.3687527179718018 -2.1978647708892822
C 12.568077087402344 2.363102436065674 -2.8677539825439453
H 1.4427114725112915 -2.4578723907470703 2.9824225902557373
H 1.100368618965149 -0.611987829208374 0.20981629192829132
H 2.018699884414673 0.8387549519538879 3.0907227993011475
H 5.135935306549072 -3.0903637409210205 0.18929386138916016
H 6.046197891235352 -1.6469907760620117 3.045180320739746
H 6.001789093017578 2.5950098037719727 0.9318239688873291
H 5.085555553436279 1.1373127698898315 -1.951028823852539
H 8.937629699707031 3.990912675857544 -2.3929412364959717
H 13.13306713104248 0.4906485080718994 -3.533409833908081
H 13.676325798034668 2.8625192642211914 -1.1977462768554688
H 12.873003005981445 3.761594295501709 -4.354987144470215
