14
Generated by QM7 dataset
N 2.2150235176086426 -0.945996880531311 -0.33253511786460876
C 4.785580158233643 -1.1459109783172607 -0.3263745903968811
O 5.818636894226074 -3.203293561935425 -0.5535574555397034
C 6.151700973510742 1.3397213220596313 -0.016837459057569504
C 9.00819206237793 0.981467068195343 -0.05682406574487686
C 10.32028579711914 3.4155476093292236 0.24522976577281952
C 11.39975357055664 5.394771099090576 0.49117761850357056
H 1.2927805185317993 0.7177368998527527 -0.17258869111537933
H 1.1970469951629639 -2.551281452178955 -0.5404427647590637
H 5.558119297027588 2.1926681995391846 1.7768906354904175
H 5.563599586486816 2.6058566570281982 -1.549235224723816
H 9.588905334472656 0.099456287920475 -1.8399885892868042
H 9.584898948669434 -0.3078174889087677 1.459700107574463
H 12.367595672607422 7.148852825164795 0.7093653678894043
