15
Generated by QM7 dataset
C 2.0253140926361084 0.3440057337284088 -0.13679727911949158
C 4.824962139129639 -0.13520990312099457 0.345914363861084
O 6.302274227142334 2.029736042022705 -0.30313095450401306
C 6.854641437530518 2.138792037963867 -2.935746192932129
O 8.243911743164062 0.018273651599884033 -3.882725715637207
C 7.405458927154541 -2.2301793098449707 -2.9218945503234863
C 5.7767415046691895 -2.4272587299346924 -1.0062791109085083
H 1.4238141775131226 2.0893378257751465 0.7985793948173523
H 0.8677055239677429 -1.216983675956726 0.5726248025894165
H 1.6185882091522217 0.5764042735099792 -2.15232253074646
H 5.092471599578857 -0.41857433319091797 2.3803746700286865
H 8.015084266662598 3.820704936981201 -3.2549777030944824
H 5.119003772735596 2.383114814758301 -4.04216194152832
H 8.249693870544434 -3.820648193359375 -3.8904170989990234
H 5.178321838378906 -4.274012565612793 -0.3432498574256897
