15
Generated by QM7 dataset
C 1.6776043176651 -0.07651501148939133 -0.0124343978241086
C 4.4831671714782715 -0.006406171713024378 -0.011584021151065826
C 6.040830612182617 2.086484432220459 -0.031501736491918564
N 5.52329158782959 4.567637920379639 -0.06066020950675011
N 8.495736122131348 1.2719746828079224 -0.027967946603894234
C 8.56015682220459 -1.3143612146377563 -0.004686520900577307
C 6.10164213180542 -2.162130117416382 0.005253438837826252
H 0.8571986556053162 1.8212991952896118 0.01585480198264122
H 0.9844906330108643 -1.09379243850708 1.650467872619629
H 0.9848496913909912 -1.0455665588378906 -1.7039849758148193
H 6.853734493255615 5.939163684844971 0.09318239241838455
H 3.7181873321533203 5.207234859466553 0.06789786368608475
H 10.02097225189209 2.4155423641204834 -0.049473028630018234
H 10.338332176208496 -2.321226119995117 -0.0015684727113693953
H 5.520419120788574 -4.123325824737549 0.019445281475782394
