16
Generated by QM7 dataset
C 1.8710933923721313 -0.09745317697525024 0.15637484192848206
C 4.7181925773620605 0.14291998744010925 -0.00978878140449524
C 5.985537528991699 2.106458902359009 1.7325198650360107
C 7.921353816986084 0.011735199019312859 2.326385259628296
N 6.038355350494385 -1.8574306964874268 1.4366075992584229
C 10.176742553710938 -0.04559909179806709 0.770668089389801
C 12.043526649475098 -0.09652721136808395 -0.5230950713157654
H 1.210180640220642 -1.7491116523742676 -0.9013615846633911
H 0.9594895243644714 1.572705626487732 -0.6567743420600891
H 1.217720627784729 -0.28444159030914307 2.111938953399658
H 5.362589359283447 0.2772606313228607 -1.978429913520813
H 4.852136611938477 2.6728663444519043 3.373331308364868
H 6.697983264923096 3.8094990253448486 0.8019808530807495
H 8.352079391479492 -0.16346131265163422 4.3442912101745605
H 6.7721357345581055 -3.2745931148529053 0.3603140711784363
H 13.696394920349121 -0.14273101091384888 -1.6711037158966064
