15
Generated by QM7 dataset
C 1.5501422882080078 0.3229353129863739 -0.1366838961839676
C 4.32588529586792 0.3170960545539856 -0.6573034524917603
C 5.999748229980469 1.7546106576919556 0.5968322157859802
C 8.714056015014648 1.8269494771957397 0.17270207405090332
C 10.197736740112305 3.349029302597046 1.5553768873214722
C 9.863614082336426 0.28372347354888916 -1.7216349840164185
C 10.841925621032715 -1.0060901641845703 -3.3086459636688232
H 0.9337136745452881 -1.5729891061782837 0.4123382568359375
H 0.5163676738739014 0.8752455711364746 -1.8402531147003174
H 1.0383288860321045 1.631929636001587 1.3807851076126099
H 4.945583343505859 -0.9503810405731201 -2.151188611984253
H 5.295655250549316 2.9969167709350586 2.079322338104248
H 9.441865921020508 4.56667423248291 3.0211429595947266
H 12.227151870727539 3.4189114570617676 1.2557419538497925
H 11.709990501403809 -2.152284622192383 -4.71866512298584
