16
Generated by QM7 dataset
C -0.8938215374946594 -2.9954993724823 -0.5218667984008789
C 1.5356292724609375 -2.293976306915283 0.9074465036392212
C 2.2513251304626465 0.44820523262023926 0.7563061714172363
N 2.011122226715088 1.8583945035934448 -1.595609188079834
C 0.17908935248851776 2.374478578567505 0.4157586395740509
C -2.390390157699585 1.410964012145996 0.06215309351682663
C -2.943002700805664 -1.0323007106781006 -0.3593692183494568
H -1.604925513267517 -4.792610168457031 0.2235735058784485
H -0.46260496973991394 -3.3117640018463135 -2.5242772102355957
H 3.1025524139404297 -3.464869499206543 0.2242538034915924
H 1.2807618379592896 -2.765878677368164 2.9122190475463867
H 3.847501277923584 0.9131534695625305 1.94741952419281
H 3.3120851516723633 3.276048183441162 -1.6933079957962036
H 0.3514701724052429 4.176275730133057 1.3765143156051636
H -3.9187629222869873 2.7807319164276123 0.10924506932497025
H -4.881143569946289 -1.6180402040481567 -0.6825501918792725
