15
Generated by QM7 dataset
C -1.941901445388794 -0.08534003049135208 2.1389243602752686
C -1.1609721183776855 1.9021227359771729 0.12842579185962677
C 1.7022652626037598 2.4299609661102295 -0.013171391561627388
C 3.1025335788726807 -0.06812462955713272 -0.03735988587141037
C 1.7708812952041626 -2.2327303886413574 -0.010317904874682426
C -1.0329242944717407 -1.9144248962402344 0.025908146053552628
O -1.8950740098953247 0.01780121959745884 -1.818691372871399
H -0.888568103313446 -0.0783858373761177 3.915304660797119
H -3.9714107513427734 -0.16584236919879913 2.531118154525757
H -2.3531057834625244 3.589364767074585 0.05621935427188873
H 2.148524045944214 3.4961066246032715 -1.7294962406158447
H 2.3000612258911133 3.547053813934326 1.622840166091919
H 5.151204586029053 -0.07020332664251328 -0.09822796285152435
H 2.6256422996520996 -4.090217590332031 -0.04917067289352417
H -2.0920591354370117 -3.680241584777832 -0.1441105157136917
