17
Generated by QM7 dataset
C 2.414219617843628 0.38004282116889954 0.40844541788101196
C 2.2172534465789795 -0.029063988476991653 3.206411600112915
C 1.4284062385559082 -2.5597286224365234 4.2526774406433105
N 4.0353779792785645 -1.6775665283203125 4.484622478485107
C 4.604109764099121 2.0511465072631836 -0.25772085785865784
C 4.413153171539307 3.9085395336151123 -2.4077188968658447
N 4.449719429016113 4.77314567565918 0.2117438167333603
H 2.6407787799835205 -1.4240976572036743 -0.585663914680481
H 0.630809485912323 1.1982375383377075 -0.2605743408203125
H 1.64920175075531 1.6674376726150513 4.2076263427734375
H 1.1409410238265991 -4.122947692871094 2.96989369392395
H 0.3222360908985138 -2.608332395553589 5.972479343414307
H 4.39174222946167 -1.0120806694030762 6.264706611633301
H 6.411765098571777 1.1543959379196167 0.10302786529064178
H 2.6271917819976807 4.125272274017334 -3.3839893341064453
H 6.083406448364258 4.2908501625061035 -3.5255863666534424
H 6.190289497375488 5.4603447914123535 0.6956837773323059
