10
Generated by QM7 dataset
O 2.660620927810669 -0.4724882245063782 -0.14019878208637238
C 0.9032323956489563 -2.405205726623535 -0.1459246575832367
C -1.584856629371643 -1.9634065628051758 -0.15703624486923218
O -2.570594549179077 0.45597201585769653 -0.1635746955871582
C -0.8123365640640259 2.389199733734131 -0.1578110307455063
C 1.6751855611801147 1.9476650953292847 -0.1466994434595108
H 1.782767653465271 -4.244589328765869 -0.14038775861263275
H -3.0434794425964355 -3.388486862182617 -0.161911740899086
H -1.692722201347351 4.228847980499268 -0.16332903504371643
H 3.135150194168091 3.371366024017334 -0.14180505275726318
