19
Generated by QM7 dataset
C 1.8934110403060913 0.004270780831575394 -0.10382155328989029
C 4.761373043060303 0.06923956423997879 0.021486185491085052
C 5.786889553070068 2.13157320022583 1.7211625576019287
C 8.44340991973877 1.2017146348953247 2.221958875656128
O 8.33306884765625 -1.5069242715835571 2.2343177795410156
C 5.936782360076904 -2.284055233001709 1.2116167545318604
C 6.3621978759765625 -4.421713352203369 -0.6558672785758972
H 1.2432886362075806 -1.5442464351654053 -1.3083518743515015
H 1.1610288619995117 1.7744905948638916 -0.8830879330635071
H 1.059852957725525 -0.2552831172943115 1.7732622623443604
H 5.516998767852783 0.3500339686870575 -1.8907465934753418
H 4.722501277923584 2.213719606399536 3.4968438148498535
H 5.748887062072754 4.0085625648498535 0.8576521873474121
H 9.734905242919922 1.770257592201233 0.7061150670051575
H 9.198789596557617 1.879502773284912 4.0210347175598145
H 4.791929721832275 -2.9665298461914062 2.7981364727020264
H 7.659475803375244 -3.8386385440826416 -2.163018226623535
H 4.590031623840332 -5.050217628479004 -1.5092675685882568
H 7.250444412231445 -6.0326104164123535 0.29052650928497314
