14
Generated by QM7 dataset
C 0.36137232184410095 -0.6012163758277893 -0.3728618621826172
C 3.0651357173919678 -1.5597422122955322 -0.33168473839759827
C 4.946187973022461 0.5697335600852966 0.14960962533950806
O 7.469482898712158 -0.42292070388793945 0.2506154775619507
C 8.671783447265625 -0.6236662864685059 -2.0033552646636963
O 7.827699184417725 -0.06906948983669281 -4.076158046722412
H -0.94796222448349 -2.163736343383789 -0.7214407324790955
H 0.0969996452331543 0.8034926652908325 -1.8681076765060425
H -0.14401602745056152 0.26939934492111206 1.4341131448745728
H 3.4976751804351807 -2.4962525367736816 -2.1283607482910156
H 3.2754433155059814 -3.0128281116485596 1.1313412189483643
H 4.572343349456787 1.4430515766143799 1.9889367818832397
H 4.792439937591553 2.0684564113616943 -1.272560477256775
H 10.578969955444336 -1.3896101713180542 -1.6823097467422485
