16
Generated by QM7 dataset
C 2.501997470855713 5.395942687988281 4.578806400299072
N 3.964021921157837 3.3909056186676025 3.4741103649139404
C 4.494033336639404 3.307379722595215 0.9284035563468933
O 3.907670259475708 4.980883598327637 -0.5690154433250427
C 5.910534381866455 0.9219973683357239 0.11058676987886429
O 6.264498710632324 -0.8079524040222168 2.1562910079956055
C 7.570526123046875 -3.014094352722168 1.3486030101776123
H 2.617440700531006 5.244991779327393 6.634223937988281
H 0.5377782583236694 5.209086894989014 3.96662974357605
H 3.240370035171509 7.223855972290039 3.958806276321411
H 4.350244045257568 1.7928776741027832 4.467180252075195
H 7.753262996673584 1.5058660507202148 -0.6300346851348877
H 4.797769069671631 0.008730534464120865 -1.3771190643310547
H 9.425972938537598 -2.5207433700561523 0.5811852812767029
H 6.459650993347168 -4.03076696395874 -0.06768999248743057
H 7.839698791503906 -4.245175361633301 2.9851248264312744
