14
Generated by QM7 dataset
C 2.224717855453491 -0.12198182195425034 -1.129319190979004
O 4.784541130065918 -0.29302093386650085 -0.30585217475891113
C 5.963578701019287 2.0109710693359375 -0.23385360836982727
C 8.481846809387207 2.2717342376708984 -0.0548209547996521
C 10.270736694335938 0.07430402934551239 0.06090587377548218
C 9.527961730957031 4.756837368011475 0.028818324208259583
N 10.368095397949219 6.78048849105835 0.09250209480524063
H 1.447794795036316 -2.0356507301330566 -1.2113144397735596
H 2.115605115890503 0.7078347206115723 -3.022503614425659
H 1.0964380502700806 0.9810324311256409 0.21015644073486328
H 4.694533348083496 3.620016098022461 -0.2974807024002075
H 9.30406665802002 -1.752853274345398 -0.01787680946290493
H 11.36023998260498 0.12619590759277344 1.8202030658721924
H 11.596719741821289 0.14235307276248932 -1.5269553661346436
