18
Generated by QM7 dataset
C 1.9634253978729248 0.031917475163936615 0.002777897519990802
N 4.711408615112305 -0.038323644548654556 0.131543830037117
C 5.6911749839782715 -2.066528797149658 1.748166799545288
C 7.320024490356445 -0.5323358774185181 3.550870895385742
C 8.575709342956543 1.488102674484253 1.8126630783081055
C 5.7278923988342285 2.2263996601104736 1.4311084747314453
C 5.53326940536499 1.658234715461731 4.3363356590271
H 1.2553261518478394 -1.6747509241104126 -0.931483805179596
H 1.3426315784454346 1.64389169216156 -1.1388245820999146
H 1.0500074625015259 0.17134146392345428 1.854539394378662
H 6.82525634765625 -3.396763801574707 0.6414675116539001
H 4.224936485290527 -3.119654417037964 2.7650094032287598
H 8.45057201385498 -1.468241572380066 4.99114465713501
H 9.603645324707031 0.7947432398796082 0.1559968888759613
H 9.753934860229492 2.8984053134918213 2.7706408500671387
H 5.2646260261535645 4.091578483581543 0.6933594346046448
H 6.358210563659668 3.09287691116333 5.585180282592773
H 3.6865344047546387 1.1342135667800903 5.102657318115234
