15
Generated by QM7 dataset
C 1.8856821060180664 0.3910221457481384 -0.19263868033885956
O 4.458053112030029 0.4748881757259369 0.637706995010376
C 5.8702263832092285 2.525165557861328 0.11336467415094376
N 8.314643859863281 2.4742183685302734 0.34944814443588257
C 9.083006858825684 5.081417083740234 -0.3787955939769745
C 6.65939474105835 6.671092510223389 -0.3974283039569855
N 4.735067844390869 4.735199928283691 -0.5722090601921082
H 1.2664188146591187 -1.5800000429153442 -0.14806003868579865
H 1.6996763944625854 1.0858176946640015 -2.1317622661590576
H 0.6981971263885498 1.4826979637145996 1.0993670225143433
H 10.463356971740723 5.835209846496582 0.9639493227005005
H 9.952658653259277 5.025688648223877 -2.2573912143707275
H 6.592668533325195 7.989044189453125 -1.9868202209472656
H 6.456721782684326 7.721099853515625 1.3748135566711426
H 3.08492112159729 5.113070011138916 0.3121071755886078
