14
Generated by QM7 dataset
C 1.2579339742660522 2.3383660316467285 -0.3737311363220215
N -1.483170509338379 2.607633113861084 0.04327472671866417
C -2.6377174854278564 0.11277885735034943 -0.4116579294204712
C -0.634305477142334 -1.7114304304122925 0.39761728048324585
N 1.4238141775131226 -2.459667444229126 -1.289209008216858
C 1.7996807098388672 -0.3205731511116028 0.4214845299720764
H 1.7321418523788452 2.6312735080718994 -2.3668065071105957
H 2.291576385498047 3.7095890045166016 0.7742964029312134
H -2.205310344696045 3.8922500610351562 -1.1922471523284912
H -4.361204624176025 -0.09031001478433609 0.7094221115112305
H -3.101871967315674 -0.1298241913318634 -2.4145030975341797
H -1.1276941299438477 -2.9166409969329834 1.9690756797790527
H 2.315443754196167 -4.032089710235596 -0.6130271553993225
H 3.0650601387023926 -0.5216777920722961 2.010347366333008
