18
Generated by QM7 dataset
C 3.6131186485290527 -2.448650360107422 1.5932470560073853
C 3.528836727142334 -0.10223418474197388 -0.06786006689071655
C 5.816860675811768 1.6174166202545166 0.31084105372428894
N 8.172026634216309 0.42050185799598694 -0.40440139174461365
C 8.963802337646484 0.31405359506607056 -2.8795268535614014
C 11.40924072265625 -1.087915301322937 -3.2617995738983154
O 7.798295021057129 1.2543246746063232 -4.6481404304504395
H 1.8790491819381714 -3.550341844558716 1.356048583984375
H 3.7814364433288574 -1.9390101432800293 3.590460777282715
H 5.208897590637207 -3.665501832962036 1.09379243850708
H 1.8125686645507812 0.9684090614318848 0.379645973443985
H 3.38533091545105 -0.6801313161849976 -2.0518457889556885
H 5.98895788192749 2.175093650817871 2.2971131801605225
H 5.580361366271973 3.3383145332336426 -0.8154168128967285
H 9.131478309631348 -0.5540109872817993 0.9291216731071472
H 12.303213119506836 -1.5805668830871582 -1.4651235342025757
H 12.71216869354248 0.11022772639989853 -4.327926158905029
H 11.033052444458008 -2.8239121437072754 -4.316399097442627
