15
Generated by QM7 dataset
C 3.811501979827881 -1.9794691801071167 -0.46164119243621826
C 6.063545227050781 -0.9148353338241577 -0.02851596660912037
C 6.546937465667725 1.7395306825637817 -0.4206341505050659
C 8.80158805847168 2.816523313522339 0.017253199592232704
C 9.408700942993164 5.495701313018799 -0.345687597990036
C 8.632287979125977 7.3602375984191895 1.6653966903686523
O 11.233060836791992 6.770699977874756 1.2100105285644531
H 3.5320115089416504 -3.986037015914917 -0.1399531215429306
H 2.2024381160736084 -0.9032512903213501 -1.139221429824829
H 7.609530448913574 -2.0885632038116455 0.650878369808197
H 4.992089748382568 2.899406909942627 -1.1022017002105713
H 10.357948303222656 1.6564583778381348 0.6970632672309875
H 9.310832023620605 6.115324020385742 -2.299116373062134
H 7.804455757141113 6.672245025634766 3.405796766281128
H 7.961321830749512 9.199073791503906 1.070888876914978
