20
Generated by QM7 dataset
C 2.401445150375366 4.111874103546143 0.9393261671066284
O 5.048781394958496 4.1754631996154785 1.3862086534500122
C 6.398499488830566 2.6979997158050537 -0.4444446861743927
C 9.271223068237305 2.7801461219787598 0.12251094728708267
C 9.811306953430176 1.7680277824401855 2.7894437313079834
C 10.707716941833496 1.2073081731796265 -1.8377586603164673
N 10.176344871520996 5.412099838256836 -0.04066690802574158
H 1.4755926132202148 5.308920860290527 2.3458304405212402
H 1.6844451427459717 2.1824069023132324 1.1413756608963013
H 1.961611270904541 4.842479705810547 -0.9435969591140747
H 6.01596212387085 3.4521138668060303 -2.338139295578003
H 5.715816974639893 0.7412639856338501 -0.3687611520290375
H 8.901970863342285 2.922499179840088 4.251090049743652
H 11.84247875213623 1.7432156801223755 3.1925790309906006
H 9.110898971557617 -0.1703966110944748 2.997823715209961
H 10.38300609588623 1.9153507947921753 -3.7594401836395264
H 10.099225997924805 -0.7716507911682129 -1.7908556461334229
H 12.74962329864502 1.2419847249984741 -1.4921088218688965
H 8.985610008239746 6.494686603546143 1.0323762893676758
H 11.912436485290527 5.560103416442871 0.7776222825050354
