12
Generated by QM7 dataset
C 1.934342622756958 0.024434158578515053 -0.14240975677967072
C 4.744800090789795 -0.08647386729717255 0.004478651098906994
C 6.229085445404053 -1.3877015113830566 -2.0427372455596924
C 6.341184139251709 1.4417476654052734 -1.785999059677124
H 1.2129396200180054 1.4874979257583618 1.1306986808776855
H 1.1188312768936157 -1.7866982221603394 0.4335031807422638
H 1.268081784248352 0.4528728723526001 -2.0537543296813965
H 5.398153781890869 -0.30139240622520447 1.9337756633758545
H 5.222069263458252 -2.167818307876587 -3.6451683044433594
H 7.880554676055908 -2.4669241905212402 -1.4868175983428955
H 8.066919326782227 2.2729625701904297 -1.0600041151046753
H 5.411533355712891 2.5685346126556396 -3.223060131072998
