17
Generated by QM7 dataset
C 4.802285671234131 1.6886593103408813 -4.326244354248047
O 4.473851203918457 3.7530906200408936 -2.6404576301574707
C 5.2544026374816895 3.1334683895111084 -0.1442050039768219
O 7.910733699798584 2.7857208251953125 0.06950412690639496
C 9.245843887329102 5.092698574066162 -0.30753403902053833
C 11.974987030029297 4.572872638702393 0.2125752866268158
C 13.859837532043457 4.97850227355957 -1.4261574745178223
H 4.0868916511535645 2.2486417293548584 -6.181086540222168
H 3.7311320304870605 0.04123382270336151 -3.6833786964416504
H 6.805187225341797 1.2085176706314087 -4.516672134399414
H 4.31619119644165 1.395808458328247 0.4766078293323517
H 4.637028694152832 4.643359661102295 1.1309821605682373
H 8.569738388061523 6.529570579528809 1.022058367729187
H 8.95968246459961 5.770902156829834 -2.2419145107269287
H 12.411967277526855 3.806248664855957 2.067625045776367
H 13.514678955078125 5.727759838104248 -3.3052256107330322
H 15.800699234008789 4.547399044036865 -0.9181234240531921
