20
Generated by QM7 dataset
C 1.7542895078659058 3.6440155506134033 1.1909620761871338
C 4.588160514831543 4.041973114013672 1.4702636003494263
N 5.910383224487305 2.753425359725952 -0.5829049348831177
C 8.664507865905762 2.8868212699890137 -0.35124340653419495
C 9.825461387634277 1.138087511062622 -2.3420510292053223
C 9.636545181274414 5.536349773406982 -0.7328736186027527
C 10.97758960723877 6.823517799377441 0.9869283437728882
H 0.7463284134864807 4.619246482849121 2.7118136882781982
H 1.268062949180603 1.6348776817321777 1.2901160717010498
H 1.0639536380767822 4.392233848571777 -0.6109673380851746
H 5.18964147567749 3.289635181427002 3.3037514686584473
H 4.975100994110107 6.0756964683532715 1.4485129117965698
H 5.357297897338867 3.4653987884521484 -2.2823922634124756
H 9.229347229003906 2.163698673248291 1.5090408325195312
H 9.315593719482422 1.712356448173523 -4.267209529876709
H 9.188207626342773 -0.8143963813781738 -2.07319974899292
H 11.89285945892334 1.141489028930664 -2.211754322052002
H 9.217630386352539 6.437711238861084 -2.532270908355713
H 11.44686508178711 6.0129008293151855 2.8126306533813477
H 11.627333641052246 8.730515480041504 0.600252628326416
