19
Generated by QM7 dataset
C 5.7942214012146 -1.890803337097168 -2.220409393310547
C 5.00707483291626 -0.17684057354927063 -0.03775672987103462
N 5.748376846313477 -1.2972970008850098 2.4038071632385254
C 6.001033306121826 2.577340841293335 -0.31174811720848083
N 5.358261585235596 4.075704574584961 1.9838533401489258
C 8.877876281738281 2.781733512878418 -0.7156015038490295
O 9.592268943786621 5.385341644287109 -0.6997466683387756
H 5.2589945793151855 -1.0514435768127441 -4.034943103790283
H 4.855367660522461 -3.731264352798462 -2.080815315246582
H 7.8348236083984375 -2.2327492237091064 -2.2444088459014893
H 2.934706926345825 -0.07974644005298615 -0.03170960396528244
H 7.649478912353516 -1.6231802701950073 2.423328161239624
H 4.933621406555176 -3.038339376449585 2.5727109909057617
H 5.055490016937256 3.4949350357055664 -1.912213921546936
H 5.822624206542969 2.9322314262390137 3.4869792461395264
H 3.4332733154296875 4.168017864227295 2.1047203540802
H 9.44715690612793 1.9841368198394775 -2.5347652435302734
H 9.93810749053955 1.8304831981658936 0.7851434350013733
H 8.477405548095703 6.135260581970215 0.5854371786117554
