18
Generated by QM7 dataset
C 1.9518225193023682 -0.014324123971164227 -0.24419040977954865
C 4.844350814819336 -0.13169501721858978 -0.03972204402089119
C 5.558062553405762 -1.4430893659591675 2.454017162322998
C 5.934835910797119 -1.6624677181243896 -2.2510039806365967
C 5.942867279052734 2.5545129776000977 -0.06508217006921768
N 5.469358921051025 3.9683115482330322 -2.1665899753570557
O 7.19076681137085 3.4646050930023193 1.6643762588500977
H 1.339192271232605 0.7843875288963318 -2.052809476852417
H 1.1495393514633179 1.1701372861862183 1.2536253929138184
H 1.1126896142959595 -1.9008755683898926 -0.08371486514806747
H 4.817460060119629 -0.4048927128314972 4.0868730545043945
H 7.614292621612549 -1.5621609687805176 2.6777985095977783
H 4.802001953125 -3.369910717010498 2.5358612537384033
H 5.36676549911499 -0.8823131322860718 -4.082054138183594
H 5.291478633880615 -3.629899263381958 -2.1888887882232666
H 8.005409240722656 -1.6664738655090332 -2.2006804943084717
H 4.460320472717285 3.3486135005950928 -3.6607019901275635
H 6.181823253631592 5.742254257202148 -2.2092032432556152
