14
Generated by QM7 dataset
C 1.7478265762329102 0.09013993293046951 -0.014324123971164227
C 4.5444512367248535 -0.013492644764482975 -0.0020786987151950598
C 6.188304901123047 2.01577091217041 0.004629828967154026
O 8.630719184875488 1.2274149656295776 0.016251644119620323
C 8.57525634765625 -1.3396269083023071 0.017517760396003723
C 6.120785236358643 -2.178136110305786 0.005877048242837191
N 5.370393753051758 -4.598648548126221 0.0032692262902855873
H 1.0652575492858887 2.0434365272521973 0.002456644084304571
H 0.979860782623291 -0.8683858513832092 1.650260090827942
H 0.9966415762901306 -0.8342384696006775 -1.7057991027832031
H 5.925368785858154 4.041802883148193 0.00281569198705256
H 10.39629077911377 -2.2606983184814453 0.027136467397212982
H 3.524641513824463 -5.113447666168213 -0.04108264669775963
H 6.605443000793457 -6.0659074783325195 -0.024944385513663292
