16
Generated by QM7 dataset
C 4.149744033813477 -1.5736883878707886 -1.998687744140625
O 3.5612077713012695 0.8982813358306885 -1.1293569803237915
C 5.775607585906982 2.2611896991729736 -0.2746905982494354
C 6.690990924835205 4.359938144683838 -1.9763511419296265
N 5.436439514160156 4.8415350914001465 -4.414948463439941
C 5.330463886260986 4.9774250984191895 0.4470525085926056
O 6.890621662139893 5.955547332763672 2.4454379081726074
H 2.414200782775879 -2.45507550239563 -2.689703941345215
H 4.905294418334961 -2.7141947746276855 -0.4486020803451538
H 5.515732765197754 -1.4851924180984497 -3.548433303833008
H 7.166597366333008 1.2522459030151367 0.8472965359687805
H 8.716683387756348 4.704416751861572 -1.9966468811035156
H 3.613269805908203 4.202939987182617 -4.305608749389648
H 6.246999740600586 3.759288787841797 -5.788949012756348
H 3.4022817611694336 5.665531158447266 0.33253511786460876
H 7.020049095153809 7.785085678100586 2.310624837875366
