13
Generated by QM7 dataset
C 1.882110595703125 0.11240091174840927 0.0126422680914402
C 4.722028732299805 0.1054656133055687 -0.0032881235238164663
N 5.907227039337158 2.2425191402435303 0.04474871605634689
N 8.542526245117188 2.1839187145233154 0.025662481784820557
C 9.737475395202637 0.061019256711006165 -0.018519315868616104
O 8.737488746643066 -2.2815420627593994 -0.06200191378593445
C 6.0688934326171875 -2.3956058025360107 -0.0886092558503151
H 1.1483298540115356 -1.8186535835266113 0.015306781977415085
H 1.1897149085998535 1.0957955121994019 -1.6680045127868652
H 1.2068547010421753 1.0933198928833008 1.7017362117767334
H 11.813471794128418 -0.029328549280762672 -0.024415262043476105
H 5.4572834968566895 -3.5211267471313477 1.5364795923233032
H 5.483399391174316 -3.39328670501709 -1.8043293952941895
