14
Generated by QM7 dataset
C 1.8656132221221924 -0.04745102301239967 0.09374931454658508
C 4.686879634857178 -0.021656261757016182 -0.05024781823158264
C 6.055929660797119 2.229177713394165 -0.17221073806285858
C 8.682214736938477 2.1499226093292236 -0.29816100001335144
C 9.855224609375 -0.1897851973772049 -0.29638463258743286
N 8.597970008850098 -2.4057536125183105 -0.1780311018228531
C 6.0492777824401855 -2.270449161529541 -0.05714531987905502
H 1.0860823392868042 1.8684099912643433 0.02951752208173275
H 1.2483341693878174 -0.9254744648933411 1.8623250722885132
H 1.0771249532699585 -1.103770136833191 -1.5008583068847656
H 5.095400810241699 4.044561862945557 -0.17003755271434784
H 9.78785514831543 3.8719353675842285 -0.3946692943572998
H 11.899209022521973 -0.3482009470462799 -0.3921559751033783
H 5.099029064178467 -4.088857173919678 0.03752996027469635
