15
Generated by QM7 dataset
C 1.9445282220840454 -0.003420404391363263 0.27111899852752686
N 4.678357124328613 0.04627939313650131 -0.084281787276268
C 5.87005615234375 1.9495549201965332 1.5823243856430054
C 7.874677658081055 -0.041271619498729706 2.314366579055786
C 5.915107250213623 -1.991072177886963 1.3784607648849487
C 10.221566200256348 0.05803348869085312 0.9154211282730103
N 12.14336109161377 0.1348697543144226 -0.14223968982696533
H 1.135990023612976 -1.631967544555664 -0.7178880572319031
H 1.0974206924438477 1.6971251964569092 -0.5501937866210938
H 1.3668389320373535 -0.11028441786766052 2.258392810821533
H 4.727357864379883 2.584143877029419 3.1943740844726562
H 6.565683364868164 3.629540205001831 0.5937897562980652
H 8.20900821685791 -0.14320345222949982 4.3575005531311035
H 6.647678375244141 -3.5437655448913574 0.2226475328207016
H 4.788943767547607 -2.8145015239715576 2.914959192276001
