19
Generated by QM7 dataset
C 2.046705722808838 0.04495658352971077 0.320648729801178
C 4.9039716720581055 -0.05472647026181221 -0.08452744781970978
C 5.513937473297119 -1.433262825012207 -2.5481255054473877
C 5.970400810241699 2.626983880996704 -0.17767205834388733
C 6.014941692352295 4.124969959259033 2.312079906463623
O 8.644136428833008 4.785731315612793 1.941542387008667
C 8.859149932861328 2.9124269485473633 -0.041044849902391434
H 1.5835905075073242 0.9798796772956848 2.107668161392212
H 1.243817687034607 -1.8614180088043213 0.37652793526649475
H 1.107436180114746 1.0963813066482544 -1.1949115991592407
H 5.7555766105651855 -1.1061322689056396 1.486420750617981
H 4.717947006225586 -0.4427817165851593 -4.181661605834961
H 4.750072479248047 -3.355926752090454 -2.5240883827209473
H 7.558659076690674 -1.567395567893982 -2.835496187210083
H 5.158479690551758 3.739276647567749 -1.7319717407226562
H 5.765667915344238 3.0318198204040527 4.049871921539307
H 4.798336029052734 5.794240474700928 2.35410737991333
H 9.745979309082031 3.684720277786255 -1.7395684719085693
H 9.918340682983398 1.2615622282028198 0.6140853762626648
