18
Generated by QM7 dataset
C 1.8244738578796387 -0.04291567951440811 0.09461858868598938
C 4.653544902801514 0.059658654034137726 -0.004856596235185862
C 5.889123439788818 2.2856805324554443 -0.06716086715459824
C 8.722352027893066 2.4037506580352783 -0.11478196829557419
C 9.956607818603516 -0.14885373413562775 0.5044434666633606
N 8.699240684509277 -2.234827995300293 -0.808122456073761
C 6.042285919189453 -2.4317941665649414 -0.040610212832689285
H 1.1407710313796997 -1.9951916933059692 0.14220188558101654
H 1.0036334991455078 0.8654378652572632 -1.573480486869812
H 1.1184722185134888 0.9051409959793091 1.7930288314819336
H 4.860413551330566 4.061852931976318 -0.08806123584508896
H 9.320072174072266 3.040550470352173 -1.994303584098816
H 9.375120162963867 3.815753936767578 1.2525482177734375
H 11.947774887084961 -0.09129267185926437 -0.06113263964653015
H 9.926486015319824 -0.4832218587398529 2.5514893531799316
H 9.589188575744629 -3.889188766479492 -0.3949149549007416
H 5.920304298400879 -3.292337656021118 1.8417271375656128
H 5.111709117889404 -3.7193400859832764 -1.3689175844192505
