15
Generated by QM7 dataset
O 1.8890080451965332 -0.009618706069886684 -0.010998206213116646
C 4.573137283325195 0.0 0.0
C 5.484023094177246 2.5722384452819824 0.0
C 6.234773635864258 4.692322254180908 0.0
C 7.443291187286377 7.115159034729004 0.06716086715459824
C 7.12207555770874 8.875382423400879 -2.1426470279693604
C 5.883227825164795 9.472270965576172 0.33914914727211
H 1.3704293966293335 -1.769142746925354 -0.012793445959687233
H 5.2340312004089355 -1.0200930833816528 -1.6730501651763916
H 5.220217227935791 -1.0153687000274658 1.6812893152236938
H 9.281975746154785 7.132185459136963 0.9827520847320557
H 5.922288417816162 8.29689884185791 -3.6977593898773193
H 8.746125221252441 9.986465454101562 -2.7084121704101562
H 6.664761543273926 10.999056816101074 1.460512638092041
H 3.846745491027832 9.294919967651367 0.46587419509887695
