13
Generated by QM7 dataset
C 1.911439061164856 -0.10778997838497162 -0.20118024945259094
C 4.785731315612793 -0.03169070556759834 -0.015004425309598446
C 5.956152439117432 -1.6168874502182007 -1.9649749994277954
N 6.832342624664307 -2.8573036193847656 -3.54809308052063
C 5.753857135772705 2.6604888439178467 -0.22389474511146545
N 5.260978698730469 3.94899845123291 -2.4061126708984375
O 6.867019176483154 3.7217211723327637 1.5151257514953613
H 1.0498751401901245 1.139599323272705 1.2087444067001343
H 1.2026594877243042 -2.02669358253479 0.12090467661619186
H 1.2386209964752197 0.4969034790992737 -2.064884901046753
H 5.3422369956970215 -0.7419820427894592 1.8514213562011719
H 4.748485088348389 3.0861873626708984 -4.0354156494140625
H 6.019136905670166 5.7021918296813965 -2.551281452178955
