13
Generated by QM7 dataset
C 1.8521206378936768 0.053006816655397415 -0.012453295290470123
C 4.688467025756836 -0.001908623380586505 -0.005177849438041449
C 5.957248210906982 -2.1964476108551025 0.008806123398244381
C 6.068307399749756 2.312533378601074 -0.007237650919705629
C 7.230923652648926 4.263071060180664 -0.006066021043807268
C 8.644457817077637 6.586508274078369 -0.0027401028200984
O 7.573493003845215 8.633874893188477 -0.0012472192756831646
H 1.1294704675674438 1.9921303987503052 0.03751106560230255
H 1.0985922813415527 -0.936321496963501 1.6419641971588135
H 1.1114424467086792 -0.8476555347442627 -1.7222775220870972
H 4.968770503997803 -3.9941818714141846 0.012037555687129498
H 8.008829116821289 -2.26171875 0.01577921397984028
H 10.715408325195312 6.381000518798828 -0.0013417055597528815
