13
Generated by QM7 dataset
C 1.5874454975128174 -0.02343260496854782 0.15337017178535461
N 4.3237690925598145 -0.007747876923531294 0.3431553542613983
O 5.355729579925537 -2.2902536392211914 -0.5410097241401672
C 5.727306365966797 2.1139988899230957 -0.22383806109428406
N 5.067395210266113 4.448226451873779 -0.32354000210762024
C 8.399927139282227 1.8890268802642822 -0.7351979613304138
C 10.623076438903809 1.704835295677185 -1.157343864440918
H 0.7600856423377991 1.4630448818206787 1.3292900323867798
H 0.826301634311676 -1.8306910991668701 0.8156813979148865
H 0.9884401559829712 0.2608011066913605 -1.8067293167114258
H 6.796834468841553 -2.5655300617218018 0.5795223116874695
H 3.1940906047821045 4.616695404052734 0.08794785290956497
H 12.593777656555176 1.5767496824264526 -1.5437928438186646
