17
Generated by QM7 dataset
C 1.7981311082839966 0.17651931941509247 -0.0910659059882164
C 4.5682806968688965 -0.48959025740623474 -0.2149563431739807
C 5.08198356628418 -3.1683337688446045 -1.0246661901474
O 4.1587958335876465 -4.847431182861328 0.851926326751709
C 6.322947978973389 1.2707841396331787 0.33767515420913696
C 9.033684730529785 0.9582423567771912 0.30477502942085266
C 10.629898071289062 2.8402016162872314 0.8636426329612732
H 1.4853625297546387 2.1494688987731934 0.4504729211330414
H 0.8261882662773132 -1.0095106363296509 1.2987520694732666
H 0.9089204668998718 -0.11013323813676834 -1.9381976127624512
H 7.081578731536865 -3.5838088989257812 -1.319671392440796
H 4.1100029945373535 -3.579254627227783 -2.804826021194458
H 4.85349702835083 -4.26923131942749 2.4549810886383057
H 5.670047760009766 3.1504948139190674 0.8780801296234131
H 9.83088493347168 -0.8664772510528564 -0.188859224319458
H 9.979266166687012 4.71709680557251 1.3737175464630127
H 12.658443450927734 2.5328187942504883 0.81617271900177
