13
Generated by QM7 dataset
C 2.1468610763549805 -0.08416840434074402 0.622475802898407
C 4.952877521514893 -0.4487343728542328 0.310387521982193
O 5.910401821136475 -2.562185287475586 0.2952319085597992
N 6.283245086669922 1.7923296689987183 0.10506877303123474
C 8.85527515411377 1.8951307535171509 -0.17481856048107147
C 10.096504211425781 4.084265232086182 -0.3603140711784363
H 1.5497076511383057 1.8002287149429321 0.021127138286828995
H 1.6479167938232422 -0.350978821516037 2.608823537826538
H 1.1517881155014038 -1.473778486251831 -0.5389310121536255
H 5.31746244430542 3.442873239517212 0.1736847311258316
H 9.850764274597168 0.0953366830945015 -0.2387291043996811
H 9.148107528686523 5.899479389190674 -0.3009010851383209
H 12.135235786437988 4.0925798416137695 -0.580108106136322
