13
Generated by QM7 dataset
O 4.336977958679199 -1.1184154748916626 -2.496347188949585
C 4.410979747772217 -0.14274990558624268 0.003911733161658049
C 5.344485759735107 2.519534111022949 0.017328789457678795
C 3.81526255607605 4.6390886306762695 0.030726946890354156
S 5.492356777191162 7.401584625244141 0.06304126232862473
C 8.301509857177734 5.811021327972412 0.025945939123630524
C 7.960282325744629 3.231734037399292 -0.0006803013966418803
H 3.7001781463623047 -2.8348348140716553 -2.374100685119629
H 5.656139373779297 -1.3449369668960571 1.1394859552383423
H 2.5059657096862793 -0.25331780314445496 0.8067618608474731
H 1.7720718383789062 4.701846599578857 0.017668940126895905
H 10.066609382629395 6.840940952301025 0.015741419047117233
H 9.516585350036621 1.9009511470794678 -0.0446731261909008
