14
Generated by QM7 dataset
C 1.9815857410430908 -0.08227867633104324 -0.2656765878200531
C 4.663088321685791 0.6354393362998962 0.16671164333820343
O 6.449767589569092 -0.8310826420783997 -1.2263188362121582
C 6.227346897125244 1.799983024597168 -1.91886568069458
C 8.516448020935059 3.3205323219299316 -1.4118332862854004
N 8.369559288024902 4.989160537719727 0.5481906533241272
O 10.396025657653809 3.171621799468994 -2.7479074001312256
H 0.7356514930725098 1.4810917377471924 0.2632577419281006
H 1.486061692237854 -1.7221829891204834 0.8929901123046875
H 1.6124088764190674 -0.5577337741851807 -2.245504856109619
H 5.0871429443359375 1.0238536596298218 2.126546621322632
H 5.336851119995117 2.1877925395965576 -3.720776319503784
H 6.8190388679504395 5.203965663909912 1.6357847452163696
H 9.909855842590332 6.063054084777832 0.9031190276145935
