13
Generated by QM7 dataset
N 3.8363142013549805 -0.7675500512123108 -2.365464687347412
C 4.9274797439575195 -0.02326252870261669 0.05888386815786362
C 5.519304275512695 2.7103774547576904 0.09822796285152435
C 4.171041488647461 4.867122173309326 -0.43038511276245117
C 5.898855686187744 6.832531452178955 0.013681617565453053
N 8.146137237548828 5.968322277069092 0.7707626223564148
O 7.902154445648193 3.3613126277923584 0.82335364818573
H 3.5559165477752686 -2.67167592048645 -2.359795570373535
H 5.133119583129883 -0.4286465644836426 -3.7505016326904297
H 6.632674217224121 -1.1429252624511719 0.41107213497161865
H 3.5794057846069336 -0.4535153806209564 1.5694553852081299
H 2.2315587997436523 4.97850227355957 -1.054750680923462
H 5.628492832183838 8.847679138183594 -0.17659491300582886
