12
Generated by QM7 dataset
O 3.922107696533203 -1.6428334712982178 0.6804525852203369
C 4.633268356323242 0.3459710478782654 -0.26371127367019653
N 5.67841911315918 2.348721742630005 1.0462846755981445
C 7.711065292358398 3.797877073287964 -0.0005480205873027444
C 5.144382476806641 4.904047012329102 0.3170393407344818
C 4.694382190704346 6.669164657592773 2.3161427974700928
C 4.309520244598389 8.148877143859863 3.9923110008239746
H 4.493466377258301 0.6909405589103699 -2.3159916400909424
H 8.337188720703125 3.241541624069214 -1.8648762702941895
H 9.17951488494873 4.214561939239502 1.3580894470214844
H 3.9745097160339355 5.107835292816162 -1.3530628681182861
H 3.9645321369171143 9.44702434539795 5.492356777191162
