17
Generated by QM7 dataset
C 3.7764475345611572 -0.9081456661224365 -2.531552791595459
O 4.208797931671143 0.17308001220226288 -0.11413946002721786
C 5.776647090911865 2.4056968688964844 -0.07494653761386871
C 4.508546352386475 4.904160499572754 -0.9078244566917419
C 5.981758117675781 6.241991996765137 1.2125427722930908
C 6.157577991485596 3.6637821197509766 2.570159912109375
O 8.494224548339844 3.1498899459838867 3.8776803016662598
H 2.5820271968841553 -2.577454090118408 -2.3019320964813232
H 5.5697221755981445 -1.4793909788131714 -3.386124610900879
H 2.8080008029937744 0.44489821791648865 -3.757493734359741
H 7.583055019378662 2.0536975860595703 -1.0355510711669922
H 2.4531290531158447 4.933300018310547 -0.6505382061004639
H 4.95321798324585 5.535801410675049 -2.8239121437072754
H 7.809179782867432 7.008408546447754 0.6109106540679932
H 4.9365315437316895 7.7125959396362305 2.2186896800994873
H 4.557244777679443 3.328979253768921 3.846726417541504
H 9.819129943847656 3.3136725425720215 2.617384195327759
