17
Generated by QM7 dataset
C 1.9242514371871948 -0.3127685785293579 0.17343907058238983
C 4.790985107421875 -0.13634374737739563 -0.12368257343769073
N 5.599183082580566 -1.6448553800582886 -2.3092074394226074
C 5.628209114074707 2.634561777114868 -0.406612366437912
C 8.496416091918945 2.9468579292297363 -0.537721574306488
O 9.483383178710938 1.879275918006897 -2.7966814041137695
H 1.2960119247436523 0.7485015988349915 1.8362468481063843
H 1.3222792148590088 -2.2785561084747314 0.42220261693000793
H 0.9388159513473511 0.453779935836792 -1.4790886640548706
H 5.6790995597839355 -0.9326554536819458 1.5701167583465576
H 4.632626056671143 -1.0555254220962524 -3.8772644996643066
H 5.050784587860107 -3.478210926055908 -2.04559063911438
H 4.924342632293701 3.723365306854248 1.21036958694458
H 4.7764716148376465 3.444498300552368 -2.115661859512329
H 9.422438621520996 2.0447781085968018 1.0778430700302124
H 8.993792533874512 4.95416259765625 -0.522754967212677
H 8.666094779968262 0.21856571733951569 -2.957780361175537
