18
Generated by QM7 dataset
C 1.9024817943572998 -0.7776411771774292 0.903969407081604
C 4.229547023773193 -0.9261736869812012 -0.8074610829353333
C 3.775975227355957 -2.874160051345825 -2.8958542346954346
C 4.857125282287598 1.6543229818344116 -1.9803574085235596
C 5.941128730773926 3.5343925952911377 -0.10650496184825897
N 6.265292644500732 5.9050726890563965 -1.0726463794708252
O 6.540701389312744 3.0520777702331543 2.0726137161254883
H 2.2055182456970215 0.5239832401275635 2.4817962646484375
H 1.4670132398605347 -2.635298728942871 1.7066305875778198
H 0.2387291043996811 -0.13212965428829193 -0.14454515278339386
H 5.835134029388428 -1.5746142864227295 0.33287525177001953
H 2.1858084201812744 -2.3255536556243896 -4.102916717529297
H 3.356323719024658 -4.733593940734863 -2.0896403789520264
H 5.451444149017334 -3.0725624561309814 -4.094696521759033
H 3.1683337688446045 2.478942632675171 -2.8529951572418213
H 6.281468391418457 1.4143277406692505 -3.4666271209716797
H 5.901916980743408 6.351596355438232 -2.8916966915130615
H 7.025132656097412 7.231812000274658 0.07471977174282074
