13
Generated by QM7 dataset
C 6.031760215759277 -2.0752782821655273 0.7682681679725647
N 4.89594030380249 0.05886496976017952 -0.49463582038879395
C 5.966545581817627 2.351423978805542 -0.30056095123291016
N 4.859222888946533 4.553408622741699 -0.5948857665061951
C 6.76924467086792 6.264801025390625 -0.21782873570919037
C 8.9769926071167 5.0148606300354 0.30590885877609253
O 8.483094215393066 2.49065899848938 0.2632577419281006
H 4.929898738861084 -3.7796411514282227 0.3677217960357666
H 6.057214736938477 -1.800398826599121 2.8190555572509766
H 7.9623799324035645 -2.412329912185669 0.10336802154779434
H 2.9799468517303467 0.09384380280971527 -0.48694461584091187
H 6.451543807983398 8.278115272521973 -0.3440435528755188
H 10.897899627685547 5.5651679039001465 0.7147133350372314
