17
Generated by QM7 dataset
C 3.352468729019165 0.15748977661132812 -1.4021579027175903
C 3.4945571422576904 -0.16725966334342957 1.4182772636413574
C 0.9782356023788452 0.08700299263000488 0.14356249570846558
C -0.6552625298500061 2.354012966156006 0.5115488767623901
C -3.2319986820220947 1.377648115158081 -0.30819544196128845
C -3.1316163539886475 -1.4113608598709106 0.37662240862846375
O -0.5544078350067139 -2.1560451984405518 -0.029063988476991653
H 3.9613006114959717 1.9464367628097534 -2.1895501613616943
H 3.776277542114258 -1.4662196636199951 -2.5759613513946533
H 4.009734153747559 -2.0112733840942383 2.147465944290161
H 4.187500953674316 1.4030838012695312 2.533140182495117
H -0.6938696503639221 2.8977060317993164 2.509575128555298
H -0.06808683276176453 3.9892685413360596 -0.6114397644996643
H -4.809750080108643 2.3761794567108154 0.5763853788375854
H -3.4129209518432617 1.5721765756607056 -2.3626301288604736
H -4.3850908279418945 -2.554664134979248 -0.8000155687332153
H -3.587909698486328 -1.7216917276382446 2.371417284011841
