19
Generated by QM7 dataset
C 1.854331612586975 0.034865446388721466 -0.01778232306241989
C 4.721310615539551 -0.04000550135970116 0.055539052933454514
C 5.815103054046631 -2.142533779144287 1.7319151163101196
C 7.399411678314209 -0.5274981260299683 3.535318613052368
C 8.677811622619629 1.5048834085464478 1.8210912942886353
C 5.845754623413086 2.253819704055786 1.423587441444397
C 5.637355327606201 1.7007346153259277 4.322238445281982
H 1.1109888553619385 -1.6504490375518799 -0.9608312249183655
H 1.1987667083740234 1.699544072151184 -1.0585490465164185
H 1.0188080072402954 0.12065901607275009 1.8726807832717896
H 5.455960750579834 -0.17829565703868866 -1.8765169382095337
H 6.993460655212402 -3.4491848945617676 0.6435840129852295
H 4.367346286773682 -3.225649118423462 2.737797498703003
H 8.528013229370117 -1.4530670642852783 4.986571311950684
H 9.705028533935547 0.8137349486351013 0.16482190787792206
H 9.859400749206543 2.900880813598633 2.7936766147613525
H 5.431091785430908 4.150877952575684 0.7379947304725647
H 6.47491979598999 3.120844841003418 5.57633638381958
H 3.777940511703491 1.1945147514343262 5.065448760986328
