13
Generated by QM7 dataset
C 1.8460735082626343 -0.3762444853782654 -0.13435952365398407
C 4.357614040374756 -0.17415715754032135 -0.20461954176425934
O 5.554018497467041 2.1203105449676514 -0.08118263632059097
C 8.145532608032227 2.1892476081848145 -0.09244540333747864
C 9.438350677490234 4.358199596405029 0.0
C 12.095305442810059 4.358199596405029 0.0
C 14.344382286071777 4.358199596405029 0.0
H 0.9306523203849792 -2.2054238319396973 -0.23425045609474182
H 0.6606671810150146 1.293045163154602 0.02579476125538349
H 5.576166152954102 -1.8076553344726562 -0.3625061511993408
H 9.064316749572754 0.3644336760044098 -0.17306111752986908
H 8.444108963012695 6.149584770202637 0.08290228247642517
H 16.357318878173828 4.36082649230957 0.00018897261179517955
