12
Generated by QM7 dataset
O 2.28216552734375 0.8681212663650513 -1.7176666259765625
C 3.9165518283843994 0.43801963329315186 -0.13133597373962402
C 6.028094291687012 2.2146267890930176 0.3346326947212219
N 6.955099105834961 3.57243275642395 -1.9039368629455566
C 5.639509677886963 5.022608757019043 0.05111709237098694
C 7.100154399871826 6.6967549324035645 1.595968246459961
C 8.321654319763184 8.106131553649902 2.889277935028076
H 3.8971633911132812 -1.2925537824630737 1.027519702911377
H 7.479724884033203 1.5587784051895142 1.6215550899505615
H 5.749359607696533 3.2789394855499268 -3.3927388191223145
H 3.765373706817627 5.685864448547363 -0.462019145488739
H 9.416826248168945 9.360456466674805 4.019655227661133
