12
Generated by QM7 dataset
O 2.287796974182129 -0.1974574774503708 -1.2432318925857544
C 4.296689033508301 0.21913264691829681 -0.16417939960956573
N 5.413196086883545 2.5147719383239746 0.16041885316371918
O 7.747064590454102 2.683675765991211 1.4559961557388306
C 8.385225296020508 5.343578815460205 1.4619110822677612
C 6.272341251373291 6.596391201019287 0.10166726261377335
C 4.623384952545166 4.831840515136719 -0.5944511294364929
H 5.419923305511475 -1.321995735168457 0.6755771040916443
H 10.188987731933594 5.598842620849609 0.4871714115142822
H 8.533266067504883 5.989562511444092 3.4188547134399414
H 6.115399360656738 8.595287322998047 -0.25337448716163635
H 2.869171142578125 5.057851791381836 -1.6153000593185425
