15
Generated by QM7 dataset
C 2.1598057746887207 -0.9015127420425415 0.09843583405017853
C 4.978388786315918 -0.5055773258209229 0.08413060754537582
O 6.452450752258301 -2.2947888374328613 0.21575003862380981
C 5.88581657409668 2.157727003097534 -0.015382370911538601
C 8.36693286895752 2.6638145446777344 -0.022034207358956337
C 9.35818862915039 5.205156326293945 -0.10633488744497299
C 11.835090637207031 5.709334850311279 -0.1121930405497551
H 1.1909620761871338 0.6527869701385498 -0.8558002710342407
H 1.498344898223877 -1.0404832363128662 2.04870867729187
H 1.713509202003479 -2.6437456607818604 -0.9190682768821716
H 4.467104911804199 3.6312222480773926 -0.07296232879161835
H 9.726722717285156 1.1192659139633179 0.04096926376223564
H 8.023682594299316 6.769509315490723 -0.1653132438659668
H 13.251723289489746 4.225710868835449 -0.05449970066547394
H 12.506906509399414 7.647740364074707 -0.17638704180717468
