13
Generated by QM7 dataset
C 1.7455778121948242 0.09212414920330048 -0.0020598014816641808
C 4.271385669708252 0.026002632454037666 -0.002645616652444005
O 5.634464263916016 2.2879669666290283 -0.005688075441867113
C 8.242210388183594 2.197354555130005 -0.005839253775775433
C 9.572351455688477 0.04505107179284096 -0.0035526850260794163
C 8.227546691894531 -2.323059320449829 -0.0005480205873027444
C 5.693310260772705 -2.3225300312042236 -0.0005102260620333254
H 0.7586872577667236 1.889102578163147 -0.003703863127157092
H 0.6113452911376953 -1.613240361213684 0.0
H 9.050616264343262 4.071018218994141 -0.008957302197813988
H 11.619416236877441 0.04200861230492592 -0.00381724676117301
H 9.299247741699219 -4.069355010986328 0.0008881712565198541
H 4.662388801574707 -4.095282077789307 0.0012283220421522856
