16
Generated by QM7 dataset
C 6.712855339050293 -2.3265740871429443 -4.3979597091674805
C 6.782756328582764 -1.2753762006759644 -2.410893678665161
C 6.86756706237793 0.0 0.0
N 8.45357608795166 2.2664997577667236 -0.1289927065372467
C 7.075947284698486 4.4037041664123535 -1.3354127407073975
C 8.208498001098633 6.118838787078857 0.7237083911895752
C 8.353798866271973 3.67185115814209 2.297699213027954
H 6.6672749519348145 -3.259418487548828 -6.181445598602295
H 7.684798240661621 -1.2876782417297363 1.4046711921691895
H 4.942068576812744 0.4192735254764557 0.6493287682533264
H 5.004939556121826 4.303567886352539 -1.2795902490615845
H 7.673327445983887 4.83836030960083 -3.2663726806640625
H 10.054609298706055 6.924107551574707 0.237840935587883
H 6.979269027709961 7.6066765785217285 1.456128478050232
H 10.041815757751465 3.484201431274414 3.476245641708374
H 6.676496982574463 3.3443994522094727 3.4730708599090576
