17
Generated by QM7 dataset
N 1.188788890838623 2.1033785343170166 -1.7485069036483765
N 3.6933186054229736 1.8294817209243774 -2.1581051349639893
C 5.04199743270874 2.338895082473755 -0.18009090423583984
C 7.874847888946533 2.13157320022583 -0.2690592110157013
C 9.045230865478516 4.734841346740723 0.10659945011138916
C 11.880707740783691 4.61206579208374 0.028194714337587357
C 13.386045455932617 5.239058017730713 1.9631420373916626
H 0.26871904730796814 2.0908496379852295 -3.450413227081299
H 0.4831084907054901 0.5608707070350647 -0.8178167939186096
H 4.194265842437744 2.950920820236206 1.630285620689392
H 8.452896118164062 1.3093345165252686 -2.0795490741729736
H 8.457072257995605 0.8442162275314331 1.2451972961425781
H 8.395524024963379 5.548330307006836 1.8988157510757446
H 8.397924423217773 6.023464202880859 -1.3839031457901
H 12.735431671142578 3.987208843231201 -1.7366583347320557
H 12.632025718688965 5.887158393859863 3.7568888664245605
H 15.426911354064941 5.119400501251221 1.7828620672225952
