11
Generated by QM7 dataset
N 1.7758322954177856 0.24186605215072632 0.2536012530326843
C 4.3714280128479 -0.06175624951720238 0.1264604777097702
C 5.671011447906494 -2.2339963912963867 0.022544432431459427
C 4.469976902008057 -4.740151405334473 0.15212295949459076
O 5.714399337768555 -6.673775672912598 -0.11119148880243301
C 5.77003288269043 2.271186351776123 0.09221863746643066
N 6.860934257507324 4.171551704406738 0.03027341328561306
H 1.1738600730895996 2.010082721710205 -0.23472288250923157
H 0.7514873743057251 -1.1181509494781494 -0.6351369619369507
H 7.7190775871276855 -2.273435115814209 -0.10947183519601822
H 2.4185280799865723 -4.789869785308838 0.4968656897544861
