11
Generated by QM7 dataset
N 10.121354103088379 -3.6009109020233154 0.08469752222299576
C 8.645326614379883 -2.0037333965301514 0.04712976887822151
C 6.79358434677124 0.0 0.0
C 8.309730529785156 2.379373073577881 0.06859705597162247
C 9.131817817687988 3.7167890071868896 -2.3122878074645996
O 6.985656261444092 4.549874782562256 -0.8829934597015381
H 5.547461032867432 -0.08896830677986145 1.6481624841690063
H 5.615774631500244 -0.10984978079795837 -1.6979566812515259
H 9.398420333862305 2.6347696781158447 1.784279465675354
H 8.781009674072266 2.8375749588012695 -4.127993583679199
H 10.821025848388672 4.874019622802734 -2.2419521808624268
