16
Generated by QM7 dataset
C 1.8833199739456177 0.38588207960128784 -0.6132917404174805
C 4.648065090179443 0.10582466423511505 0.005442411173135042
C 5.6715216636657715 -2.203496217727661 0.27435043454170227
C 6.124035358428955 2.4651288986206055 0.1542016565799713
C 5.3839430809021 4.471186637878418 2.036916971206665
C 7.751051902770996 2.9666054248809814 2.440279006958008
H 1.6406035423278809 1.5385016202926636 -2.3148200511932373
H 0.8784580826759338 1.3006795644760132 0.947603166103363
H 0.971527099609375 -1.4398579597473145 -0.9617950320243835
H 4.548457622528076 -3.910996198654175 0.11251429468393326
H 7.67296838760376 -2.43400502204895 0.6640497446060181
H 6.844229221343994 3.1112828254699707 -1.6583669185638428
H 3.819533348083496 4.1266326904296875 3.3124630451202393
H 5.576222896575928 6.429169654846191 1.4670511484146118
H 9.54842758178711 3.9022467136383057 2.1426281929016113
H 7.7622389793396 1.612824559211731 3.9771554470062256
