17
Generated by QM7 dataset
C 1.6968796253204346 3.0071022510528564 1.0752352476119995
C 4.321690082550049 2.4652233123779297 0.06704748421907425
O 5.987427234649658 4.404195785522461 0.9274209141731262
N 8.407637596130371 3.9280035495758057 -0.04140390083193779
C 9.93081283569336 5.652870178222656 0.7865229249000549
C 12.687356948852539 5.644970893859863 0.0641184076666832
N 13.20920467376709 7.882992744445801 -1.477728009223938
H 0.35615667700767517 1.5617263317108154 0.4564444422721863
H 1.0346440076828003 4.855896949768066 0.42528286576271057
H 1.708406925201416 3.0654571056365967 3.144258737564087
H 4.296178817749023 2.440392255783081 -2.0022971630096436
H 4.984398365020752 0.6299213171005249 0.762428879737854
H 9.283109664916992 7.193752765655518 2.0363876819610596
H 13.148261070251465 3.9252636432647705 -0.986304759979248
H 13.812972068786621 5.710355758666992 1.7947107553482056
H 12.172161102294922 7.76458215713501 -3.102250099182129
H 15.053142547607422 7.840076923370361 -2.032041311264038
