15
Generated by QM7 dataset
C 5.614640712738037 -1.7073864936828613 0.30983948707580566
N 5.730443477630615 0.43807631731033325 1.4664841890335083
N 6.056118488311768 2.4215328693389893 -0.12925726175308228
C 8.63362979888916 2.950164794921875 -1.100368618965149
C 8.677717208862305 5.724944114685059 -1.5834771394729614
C 6.648037433624268 6.8183207511901855 -0.5639698505401611
C 5.035515308380127 4.88985538482666 0.7094032168388367
H 5.3581862449646 -3.4532854557037354 1.4124946594238281
H 5.7441816329956055 -1.9168626070022583 -1.7622641324996948
H 8.964803695678711 1.8850395679473877 -2.84146785736084
H 10.087056159973145 2.45819354057312 0.2908099591732025
H 10.182354927062988 6.6926164627075195 -2.5636212825775146
H 6.237286567687988 8.816404342651367 -0.5816577076911926
H 5.168060779571533 5.114864826202393 2.764272451400757
H 3.058427333831787 5.0647873878479 0.1298241913318634
