19
Generated by QM7 dataset
N 2.1719000339508057 0.1586047112941742 -1.7650986909866333
C 4.8903279304504395 0.18770650029182434 -1.2690078020095825
C 5.748773574829102 2.859382390975952 -0.588970959186554
C 8.553693771362305 2.9322690963745117 0.09645162522792816
O 10.034709930419922 2.1873390674591064 -2.0420191287994385
C 9.383529663085938 5.599787712097168 0.9095252156257629
N 12.13274097442627 5.643799304962158 1.3167989253997803
H 1.6531702280044556 -1.6240873336791992 -2.279897928237915
H 1.7996429204940796 1.274072289466858 -3.292753219604492
H 5.894301414489746 -0.502875030040741 -2.9424736499786377
H 5.295163631439209 -1.1097605228424072 0.2920193672180176
H 4.632587909698486 3.5694658756256104 1.006921648979187
H 5.395432472229004 4.110173225402832 -2.2054994106292725
H 8.947853088378906 1.5849699974060059 1.6218196153640747
H 11.69328498840332 2.95929217338562 -1.7419495582580566
H 8.398982048034668 6.184695720672607 2.631802797317505
H 8.94906234741211 6.9613542556762695 -0.5877048373222351
H 12.565431594848633 4.536306381225586 2.8374805450439453
H 12.655306816101074 7.433937072753906 1.8140047788619995
