15
Generated by QM7 dataset
C 2.274153232574463 -0.44641000032424927 -1.199182391166687
C 4.67637300491333 -0.06345700472593307 -0.5069001317024231
C 5.886704921722412 2.3720598220825195 -0.30983948707580566
C 8.350775718688965 2.652306318283081 0.2758622169494629
C 9.056228637695312 5.39547061920166 0.3601440191268921
C 6.598715782165527 6.647735118865967 -0.25751298666000366
C 4.818291187286377 4.884734153747559 -0.6288819313049316
H 1.5158816576004028 -2.349515438079834 -1.2991111278533936
H 1.0079232454299927 1.0894649028778076 -1.685295581817627
H 5.832847595214844 -1.7031723260879517 -0.054613083600997925
H 9.673262596130371 1.1413756608963013 0.6410517692565918
H 10.500414848327637 5.83961296081543 -1.0501586198806763
H 9.722433090209961 5.937784194946289 2.240232467651367
H 6.318299293518066 8.664167404174805 -0.3758854269981384
H 2.8667144775390625 5.2506794929504395 -1.0931687355041504
