17
Generated by QM7 dataset
C 2.181121826171875 2.1804983615875244 3.430419921875
N 3.3436625003814697 4.499078750610352 2.5693094730377197
C 5.689852237701416 4.527878284454346 1.4249101877212524
C 6.569198131561279 6.922274589538574 0.17315560579299927
C 5.671464920043945 9.201662063598633 0.8139995336532593
N 7.019123077392578 2.4741051197052 1.4519332647323608
C 9.52818775177002 2.405224561691284 0.34272071719169617
H 0.386089950799942 2.610618829727173 4.362130641937256
H 3.3851230144500732 1.2050594091415405 4.800395488739014
H 1.7952020168304443 0.9178211092948914 1.8387413024902344
H 2.1024715900421143 5.806863784790039 1.9298449754714966
H 8.009169578552246 6.758511066436768 -1.2708029747009277
H 4.293949127197266 9.46150016784668 2.308338165283203
H 6.372950077056885 10.887279510498047 -0.11937399953603745
H 10.426714897155762 0.60698002576828 0.8311582207679749
H 10.7469482421875 3.9066686630249023 1.0788068771362305
H 9.441052436828613 2.5086681842803955 -1.7212193012237549
