15
Generated by QM7 dataset
O 4.401323318481445 -1.511232852935791 2.4192652702331543
C 4.068618297576904 -0.3843702971935272 -0.0007747877389192581
C 5.117340564727783 2.283620595932007 0.03322138637304306
C 7.953157901763916 2.174677848815918 0.09308791160583496
N 9.272187232971191 2.9840288162231445 -1.8010224103927612
N 11.84045696258545 2.6834299564361572 -1.3297624588012695
C 13.164058685302734 3.6225671768188477 -3.148907423019409
H 3.742753744125366 -3.2254223823547363 2.3115508556365967
H 2.0413577556610107 -0.34270182251930237 -0.4056297242641449
H 5.014634132385254 -1.5619531869888306 -1.4154237508773804
H 4.4941277503967285 3.303619146347046 1.7217295169830322
H 4.508999824523926 3.315788984298706 -1.6526410579681396
H 8.840497970581055 1.3675003051757812 1.8034412860870361
H 15.241057395935059 3.5388524532318115 -3.0669310092926025
H 12.31778335571289 4.529994964599609 -4.823733806610107
