16
Generated by QM7 dataset
C 2.240893840789795 -0.2402975708246231 -0.032862339168787
N 4.998892307281494 -0.17158713936805725 -0.07876378297805786
C 6.07682991027832 -1.079562783241272 -2.4484803676605225
C 6.009007930755615 1.713887095451355 -1.8326185941696167
C 8.378402709960938 3.097336769104004 -1.1523927450180054
N 9.704254150390625 3.7803971767425537 -3.4699339866638184
H 1.5357426404953003 1.1634665727615356 1.3136430978775024
H 1.606210470199585 -2.101205348968506 0.6115531921386719
H 1.3456928730010986 0.13356584310531616 -1.8645927906036377
H 4.818386077880859 -1.784298300743103 -3.900489330291748
H 7.854968070983887 -2.0794734954833984 -2.2854726314544678
H 4.685462474822998 2.904716968536377 -2.848006248474121
H 9.620463371276855 1.9548839330673218 0.048792727291584015
H 7.894028663635254 4.815910339355469 -0.10472862422466278
H 10.302654266357422 2.1709930896759033 -4.339113712310791
H 11.300580978393555 4.748654842376709 -3.0018110275268555
