16
Generated by QM7 dataset
C 1.8172551393508911 0.0632869303226471 -0.015004425309598446
N 4.5474371910095215 0.030670255422592163 -0.0012472192756831646
C 6.079815864562988 2.1111643314361572 0.007710082456469536
C 8.546116828918457 1.2797603607177734 0.020012199878692627
C 8.509228706359863 -1.4095655679702759 0.01848152093589306
C 10.742791175842285 -3.105386972427368 0.02885611727833748
C 5.9951372146606445 -2.115208148956299 0.004913288168609142
H 1.1485377550125122 2.017547130584717 0.0037227605935186148
H 1.1468747854232788 -0.9264571070671082 1.6678911447525024
H 1.1653374433517456 -0.8882846832275391 -1.7272852659225464
H 5.312020301818848 4.004726409912109 0.004648726433515549
H 10.20265007019043 2.4798498153686523 0.029120679944753647
H 10.17736530303955 -5.095287322998047 0.04393613338470459
H 11.906332969665527 -2.756052255630493 1.7037014961242676
H 11.903101921081543 -2.7801084518432617 -1.652962327003479
H 5.130530834197998 -3.9683492183685303 -0.0007936849724501371
