12
Generated by QM7 dataset
N 1.9156532287597656 0.001833034330047667 -0.01855711080133915
C 4.454103469848633 0.06644277274608612 -0.004421959165483713
C 5.838384628295898 2.2608306407928467 0.0016440617619082332
S 9.018736839294434 1.6640172004699707 0.020900370553135872
C 8.542771339416504 -1.5319632291793823 0.020427940413355827
O 10.524678230285645 -3.077626943588257 0.033769406378269196
C 6.002885341644287 -2.123220682144165 0.005347924772650003
H 0.8368085026741028 1.5891274213790894 -0.001719650812447071
H 0.9104511737823486 -1.631022572517395 0.001058246591128409
H 5.16607666015625 4.186971664428711 -0.003968425095081329
H 9.875028610229492 -4.794121742248535 0.03155842795968056
H 5.294880390167236 -4.03981876373291 0.0015873699449002743
