10
Generated by QM7 dataset
C 1.859755039215088 0.00011338356853229925 0.029536418616771698
C 4.395068168640137 5.6691784266149625e-05 -0.012566679157316685
C 5.802649974822998 -2.42480206489563 -0.005177849438041449
O 4.7636027336120605 -4.495639801025391 0.03839923441410065
C 5.758373260498047 2.4356491565704346 -0.06610261648893356
O 8.069489479064941 2.5602197647094727 -0.10603253543376923
H 0.7523755431175232 1.7260003089904785 0.026040425524115562
H 0.8074610829353333 -1.7661947011947632 0.06940963864326477
H 7.877833843231201 -2.248471736907959 -0.041951920837163925
H 4.572287082672119 4.149460792541504 -0.06816241890192032
