14
Generated by QM7 dataset
C 1.7751331329345703 0.03809687867760658 0.30730727314949036
C 4.632909297943115 0.10302786529064178 -0.07292453199625015
O 5.099369049072266 2.236415386199951 -1.6935725212097168
N 7.420973300933838 2.277611255645752 -3.012544631958008
C 8.241643905639648 0.08966750651597977 -3.7474780082702637
C 7.178332805633545 -2.3852124214172363 -3.0889084339141846
C 5.508135795593262 -2.3478713035583496 -1.2035099267959595
H 1.1226296424865723 1.794162631034851 1.183497667312622
H 1.185368537902832 -1.5501234531402588 1.4956614971160889
H 0.7968029975891113 -0.10584355890750885 -1.5151257514953613
H 5.572103023529053 0.4243002235889435 1.747391939163208
H 9.944853782653809 0.028270302340388298 -4.930427551269531
H 7.898866176605225 -4.080580234527588 -3.968651533126831
H 4.7681193351745605 -4.096094608306885 -0.4434053301811218
