14
Generated by QM7 dataset
C 2.5049076080322266 -1.1306798458099365 -0.17090682685375214
C 5.316196441650391 -0.8296464681625366 0.15393708646297455
O 6.676969528198242 -2.6478843688964844 0.6495933532714844
C 6.359854221343994 1.8131922483444214 -0.16338571906089783
C 9.215154647827148 1.870205283164978 0.20962731540203094
C 10.184452056884766 4.447451591491699 -0.10557899624109268
N 10.915398597717285 6.499448299407959 -0.3619959354400635
H 1.5189619064331055 0.027193158864974976 1.2259975671768188
H 1.9784109592437744 -3.109090805053711 0.11032221466302872
H 1.9641057252883911 -0.560492753982544 -2.080475091934204
H 5.427898406982422 3.0444998741149902 1.2176638841629028
H 5.867732048034668 2.476996421813965 -2.0631463527679443
H 10.138739585876465 0.6099846959114075 -1.1514101028442383
H 9.702987670898438 1.1713467836380005 2.0983331203460693
