16
Generated by QM7 dataset
C 2.0382585525512695 0.05718311294913292 0.057636648416519165
C 1.2148860692977905 1.3278917074203491 2.4548676013946533
C -0.9172919392585754 0.23680157959461212 3.9994542598724365
N 1.6943851709365845 0.11293003708124161 4.886132717132568
C 4.838020324707031 0.22036096453666687 -0.31855112314224243
C 6.510900020599365 -2.0506551265716553 0.05727759748697281
O 5.761529445648193 -1.228114128112793 -2.4166762828826904
H 1.418692946434021 -1.921889305114746 0.02335701510310173
H 1.0987434387207031 0.9954699277877808 -1.5332293510437012
H 1.422812581062317 3.364184856414795 2.38515567779541
H -1.7464848756790161 -1.5464762449264526 3.435748815536499
H -2.1666088104248047 1.5170910358428955 4.992146015167236
H 2.013786554336548 1.429237723350525 6.263667583465576
H 5.610804557800293 2.0930416584014893 -0.055973686277866364
H 5.68388032913208 -3.779452323913574 0.77442866563797
H 8.45637321472168 -1.7418361902236938 0.6078681945800781
