17
Generated by QM7 dataset
C -2.841883659362793 1.4957749843597412 0.35373783111572266
C -2.5759613513946533 -1.3167800903320312 -0.27695825695991516
C -0.01965315267443657 -2.3208670616149902 0.4233364462852478
N 2.0136353969573975 -2.145217180252075 -1.4526891708374023
C 2.138716459274292 -0.49028944969177246 0.7559471726417542
C 1.6491261720657349 2.298776149749756 0.5667099952697754
N -0.7379002571105957 2.96225905418396 -0.6732149124145508
H -4.614446640014648 2.1953516006469727 -0.455575168132782
H -2.967153549194336 1.768972635269165 2.4048655033111572
H -2.9254472255706787 -1.6274510622024536 -2.2975289821624756
H -4.0334882736206055 -2.375669240951538 0.7468386888504028
H -0.08280780166387558 -4.028631687164307 1.5422999858856201
H 3.237100839614868 -3.624570369720459 -1.2798547744750977
H 3.613553285598755 -0.9222997426986694 2.107649326324463
H 1.655192255973816 3.096221685409546 2.480926990509033
H 3.208962917327881 3.1959047317504883 -0.4580507278442383
H -1.0664669275283813 4.841875076293945 -0.44055184721946716
