19
Generated by QM7 dataset
C 2.0241990089416504 0.07551345974206924 -0.389718234539032
C 4.860167980194092 -0.05329027771949768 -0.003987322095781565
O 5.901029109954834 2.360154628753662 -0.6013675332069397
C 8.595495223999023 2.487578868865967 -0.2589302659034729
C 9.972576141357422 1.255968689918518 -2.4693617820739746
C 9.279746055603027 5.299283504486084 -0.08375266194343567
O 7.997925758361816 6.4091949462890625 2.0140323638916016
H 1.1354418992996216 -1.7358078956604004 0.058978352695703506
H 1.5779780149459839 0.5700358748435974 -2.349458694458008
H 1.189941644668579 1.5442274808883667 0.80649733543396
H 5.656328201293945 -1.5083037614822388 -1.237184762954712
H 5.2775702476501465 -0.5255328416824341 1.9670915603637695
H 9.095705032348633 1.5669041872024536 1.530319094657898
H 9.305691719055176 2.0219125747680664 -4.271914958953857
H 9.626056671142578 -0.7812128067016602 -2.520271062850952
H 12.014463424682617 1.5476479530334473 -2.333282709121704
H 8.687883377075195 6.322400093078613 -1.7821251153945923
H 11.312505722045898 5.565810203552246 0.18608133494853973
H 6.238288402557373 5.879467010498047 1.8269683122634888
