13
Generated by QM7 dataset
N 1.9418448209762573 0.07581581175327301 0.48102977871894836
C 4.518977642059326 -0.015117809176445007 0.16727855801582336
C 5.947894096374512 -2.0870134830474854 -0.09297452867031097
C 8.571779251098633 -1.2395470142364502 -0.3842758238315582
O 10.394797325134277 -2.607954263687134 -0.6602135896682739
N 8.563464164733887 1.3466566801071167 -0.3003908693790436
C 6.093969821929932 2.3579623699188232 0.08165506273508072
H 1.0295039415359497 -1.5421676635742188 -0.02074919268488884
H 1.1053385734558105 1.6526600122451782 -0.2345339059829712
H 5.399986743927002 -4.040895938873291 -0.09732089936733246
H 10.183110237121582 2.349061965942383 -0.4266245663166046
H 5.600808143615723 3.58180570602417 -1.5078125
H 6.046027660369873 3.404001474380493 1.862419605255127
