18
Generated by QM7 dataset
C 4.4044036865234375 -0.9041961431503296 -2.60317325592041
C 4.559304237365723 0.26764190196990967 0.021656261757016182
N 6.238722801208496 2.469078302383423 0.006821911316365004
C 4.920109748840332 4.749467372894287 -0.994903028011322
C 6.205898284912109 6.274986743927002 1.1505597829818726
O 8.635197639465332 7.386561393737793 0.5634974241256714
C 6.2562785148620605 3.6974003314971924 2.541757345199585
H 3.232508897781372 -2.608388900756836 -2.550544500350952
H 6.279654502868652 -1.4454326629638672 -3.291562795639038
H 3.562568426132202 0.4021715223789215 -3.9687082767486572
H 5.334640026092529 -1.1539990901947021 1.3159863948822021
H 2.6491124629974365 0.7163385152816772 0.6942287087440491
H 2.849102258682251 4.742740154266357 -0.8801966309547424
H 5.478882789611816 5.277759552001953 -2.9143922328948975
H 4.987043857574463 7.693982124328613 2.0333263874053955
H 9.562411308288574 5.989109039306641 -0.20376916229724884
H 7.9582414627075195 3.321855068206787 3.6542389392852783
H 4.591599941253662 3.364959716796875 3.7342689037323
