19
Generated by QM7 dataset
C -1.5280892848968506 1.6087616682052612 -2.5415494441986084
C 0.00729434285312891 0.6800179481506348 -0.30330103635787964
C 2.820775270462036 1.167983055114746 -0.6620655655860901
O 4.129542827606201 0.21533429622650146 1.4920710325241089
C 6.786157608032227 0.5962653160095215 1.2850326299667358
C 7.979236125946045 -0.46101757884025574 3.617861747741699
C 9.49084758758545 0.8376210927963257 5.179739475250244
H -3.5421972274780273 1.2558741569519043 -2.227344512939453
H -0.969731867313385 0.6332094073295593 -4.27888822555542
H -1.269593596458435 3.641936779022217 -2.8274459838867188
H -0.3178141415119171 -1.3463354110717773 -0.02023896761238575
H -0.6428281664848328 1.6096875667572021 1.4300880432128906
H 3.1763272285461426 3.2008936405181885 -0.8447831869125366
H 3.5033442974090576 0.20777538418769836 -2.366523027420044
H 7.191957473754883 2.6164770126342773 1.074838399887085
H 7.507919788360596 -0.41549408435821533 -0.371085524559021
H 7.551440238952637 -2.424858808517456 4.039081573486328
H 9.955946922302246 2.8062055110931396 4.846372604370117
H 10.280204772949219 -0.05655950307846069 6.850314140319824
