13
Generated by QM7 dataset
O 2.585258722305298 0.053346969187259674 2.1990365982055664
C 4.408447742462158 0.02158067189157009 0.7737483382225037
C 5.659786701202393 -2.376803159713745 -0.19074895977973938
C 7.652956008911133 -1.4432783126831055 -1.970644235610962
O 9.652153968811035 -0.021901926025748253 -0.8314794898033142
C 7.661195278167725 1.3748703002929688 -2.0177361965179443
C 5.676548480987549 2.380866050720215 -0.271780401468277
H 4.261048793792725 -3.526134490966797 -1.1862000226974487
H 6.489565372467041 -3.4222941398620605 1.3863786458969116
H 8.022340774536133 -2.5612404346466064 -3.6305041313171387
H 8.03906536102295 2.433135747909546 -3.7144646644592285
H 6.512430667877197 3.4730143547058105 1.270500659942627
H 4.28421688079834 3.505045175552368 -1.304742455482483
