21
Generated by QM7 dataset
C 5.540544509887695 -1.580113410949707 2.608407974243164
C 4.953954696655273 -0.44741156697273254 0.01795239746570587
N 2.2099781036376953 -0.4401738941669464 -0.37926802039146423
C 5.951408863067627 2.2722067832946777 -0.2793771028518677
C 8.836982727050781 2.5666449069976807 -0.02866714634001255
C 10.29488754272461 1.0732321739196777 -2.0216100215911865
N 9.479962348937988 5.255403995513916 -0.24526755511760712
H 7.577367305755615 -1.8168960809707642 2.878317356109619
H 4.684366703033447 -3.4555342197418213 2.809285879135132
H 4.822335243225098 -0.3854096531867981 4.139804363250732
H 5.778876781463623 -1.6561371088027954 -1.4446767568588257
H 1.3652704954147339 0.6795266270637512 0.942765474319458
H 1.5062062740325928 -2.2108283042907715 -0.10395383834838867
H 5.03296422958374 3.485656499862671 1.136008858680725
H 5.356995582580566 2.9979372024536133 -2.1339731216430664
H 9.439579010009766 1.94664466381073 1.8494371175765991
H 9.686944007873535 1.568378210067749 -3.938680648803711
H 10.033689498901367 -0.9633445739746094 -1.770257592201233
H 12.329235076904297 1.4402358531951904 -1.8846049308776855
H 8.93840503692627 5.9167704582214355 -1.9729118347167969
H 11.392176628112793 5.477427959442139 -0.16765649616718292
