13
Generated by QM7 dataset
C 4.9879889488220215 -2.235564947128296 0.7149778604507446
C 4.1697187423706055 0.12517546117305756 0.3062868118286133
C 5.717139720916748 2.320848226547241 0.13857361674308777
C 4.814625263214111 4.726715087890625 -0.2834022343158722
O 6.746492385864258 6.418038845062256 -0.3447238504886627
C 8.906732559204102 5.088389873504639 0.04083698242902756
C 8.378365516662598 2.560673475265503 0.34878674149513245
H 3.6562798023223877 -3.79294490814209 0.8124310374259949
H 6.971785545349121 -2.686831474304199 0.9612848162651062
H 2.1410975456237793 0.39342209696769714 0.0817684531211853
H 2.9523379802703857 5.518019199371338 -0.5657272934913635
H 10.629709243774414 6.1858296394348145 0.04408730939030647
H 9.755654335021973 1.09114670753479 0.6822478175163269
