16
Generated by QM7 dataset
C 3.485618829727173 0.3282454311847687 -1.5006126165390015
N 3.4615626335144043 -0.04871714115142822 1.2243913412094116
C 1.0178065299987793 0.09887047111988068 -0.07445520907640457
C -0.6373101472854614 2.3330748081207275 0.38448366522789
C -3.2148966789245605 1.3399670124053955 -0.40600764751434326
O -3.1725478172302246 -1.3181406259536743 0.14788997173309326
C -0.6464942097663879 -2.1736385822296143 -0.37921133637428284
H 4.092258453369141 2.1774368286132812 -2.136146306991577
H 4.145379066467285 -1.24423348903656 -2.6320483684539795
H 3.8941965103149414 -1.8714714050292969 1.6916639804840088
H -0.6522200703620911 2.803711175918579 2.4014639854431152
H -0.11056787520647049 4.020883560180664 -0.6875012516975403
H -4.766701698303223 2.2486608028411865 0.6127436757087708
H -3.5225250720977783 1.5696821212768555 -2.441148281097412
H -0.5998368859291077 -2.891829013824463 -2.3201301097869873
H -0.18445616960525513 -3.707151412963867 0.927345335483551
