16
Generated by QM7 dataset
C 3.791527509689331 -1.3544234037399292 -2.362724542617798
O 3.233283519744873 0.679734468460083 -0.6977435946464539
C 5.423759460449219 2.0678138732910156 0.150176540017128
C 7.020616054534912 0.7396577000617981 2.0699493885040283
C 6.576719284057617 3.9154181480407715 -1.6824610233306885
C 4.971831798553467 4.864570617675781 0.45678460597991943
H 4.925533294677734 -0.708118200302124 -3.9654769897460938
H 2.008079767227173 -2.1106162071228027 -3.0813119411468506
H 4.780950546264648 -2.860535144805908 -1.351683259010315
H 8.490350723266602 1.9780330657958984 2.838123083114624
H 7.960792541503906 -0.899415135383606 1.2307407855987549
H 5.851744651794434 0.08479201048612595 3.645432949066162
H 5.795752048492432 4.029330730438232 -3.572036027908325
H 8.594247817993164 4.250126361846924 -1.5894486904144287
H 5.899271488189697 5.848418712615967 1.9938877820968628
H 3.104215383529663 5.582099914550781 0.01492883637547493
