19
Generated by QM7 dataset
C 3.795703887939453 -3.0628302097320557 -0.5559385418891907
C 3.19915509223938 -0.25864681601524353 -0.36972492933273315
C 5.485931873321533 1.3219767808914185 0.2641459107398987
C 6.967987060546875 0.739128589630127 2.6286656856536865
C 5.419753551483154 1.0520294904708862 5.0285234451293945
C 6.7698869705200195 2.791635751724243 -1.834810733795166
O 5.064541816711426 3.982257604598999 -0.10249874740839005
H 2.1415133476257324 -4.10427713394165 -1.2321014404296875
H 4.316644668579102 -3.8427958488464355 1.2878295183181763
H 5.362154483795166 -3.4093682765960693 -1.8608322143554688
H 1.7229011058807373 0.04193302243947983 1.0503853559494019
H 2.394245147705078 0.3574605882167816 -2.179288864135742
H 8.623123168945312 1.9820581674575806 2.755976676940918
H 7.710536003112793 -1.191207766532898 2.5276410579681396
H 4.692171096801758 2.9810240268707275 5.195971965789795
H 6.588586807250977 0.6569066047668457 6.688421249389648
H 3.8087618350982666 -0.24328334629535675 5.065165042877197
H 6.132444858551025 2.5431177616119385 -3.7636919021606445
H 8.757255554199219 3.2497053146362305 -1.6633936166763306
