16
Generated by QM7 dataset
N 1.8852474689483643 0.05572802200913429 -0.17487525939941406
C 4.637765884399414 0.038342542946338654 0.07430402934551239
C 5.703968048095703 2.066472291946411 1.807768702507019
O 8.199068069458008 1.2115789651870728 2.44228196144104
C 8.129772186279297 -1.5006693601608276 2.526979684829712
C 5.665342330932617 -2.3663527965545654 1.2970324754714966
O 6.041907787322998 -4.32070779800415 -0.524285614490509
H 1.3387954235076904 -1.5237807035446167 -1.140676498413086
H 1.3305561542510986 1.5663751363754272 -1.2331030368804932
H 5.4611005783081055 0.2387479990720749 -1.8196550607681274
H 4.620285987854004 2.251117467880249 3.5623605251312256
H 5.813345432281494 3.918233871459961 0.8943129181861877
H 9.816673278808594 -2.2441442012786865 1.5864250659942627
H 8.19515609741211 -2.0776405334472656 4.515368461608887
H 4.381197929382324 -3.1024012565612793 2.747378349304199
H 7.273499011993408 -3.7178094387054443 -1.752683162689209
