13
Generated by QM7 dataset
C 1.834092617034912 -0.09543117135763168 0.01999330334365368
C 4.6879191398620605 0.123153455555439 0.0033826096914708614
S 5.654155254364014 3.342547655105591 -0.009410835802555084
O 5.272392749786377 4.533358573913574 -2.4334192276000977
O 5.300946235656738 4.544734477996826 2.411932945251465
C 9.02973461151123 3.2483069896698 -0.028704939410090446
C 11.301545143127441 3.1879491806030273 -0.04146059229969978
H 1.2626771926879883 -2.0824027061462402 0.02800574153661728
H 1.0103987455368042 0.8094074726104736 -1.6483702659606934
H 1.029239296913147 0.8174388408660889 1.6931756734848022
H 5.472155570983887 -0.7730680704116821 -1.6859759092330933
H 5.491185188293457 -0.7649800181388855 1.6881868839263916
H 13.313687324523926 3.166595220565796 -0.05285564064979553
