16
Generated by QM7 dataset
C 6.166233062744141 -2.091473340988159 -1.535402536392212
C 4.809825420379639 0.13192178308963776 -0.3939323127269745
O 2.766540050506592 -0.09503432363271713 0.6828147172927856
N 6.01533842086792 2.3950388431549072 -0.6636340022087097
C 5.468905448913574 4.797277450561523 0.5347546935081482
C 7.782912731170654 5.815972328186035 -0.8830123543739319
C 8.562235832214355 3.0698978900909424 -1.394485592842102
H 8.017049789428711 -2.3269143104553223 -0.6490642428398132
H 6.385252475738525 -1.8127764463424683 -3.570486307144165
H 5.06229305267334 -3.8094232082366943 -1.2173993587493896
H 5.646123886108398 4.728321552276611 2.592477560043335
H 3.6599838733673096 5.623503684997559 -0.01721540465950966
H 7.3148274421691895 6.8871636390686035 -2.5927419662475586
H 9.108612060546875 6.915282726287842 0.2587602138519287
H 9.025237083435059 2.639096975326538 -3.3591394424438477
H 9.997917175292969 2.306391954421997 -0.11901494860649109
