19
Generated by QM7 dataset
C 2.861990213394165 -0.03885276988148689 2.492605447769165
C 4.277565002441406 0.5521779656410217 0.057976797223091125
C 5.5762038230896 3.1150622367858887 0.08445186167955399
C 3.8431737422943115 5.374286651611328 0.21794211864471436
O 2.256030559539795 5.398116111755371 -1.9442447423934937
C 8.121060371398926 3.239274024963379 -0.03970314562320709
C 9.775874137878418 5.530963897705078 -0.08004879951477051
H 2.122124671936035 -1.9708331823349 2.430150032043457
H 1.2515655755996704 1.2318369150161743 2.7640457153320312
H 4.102085113525391 0.11912833899259567 4.142317295074463
H 2.9680604934692383 0.4577105641365051 -1.5436984300613403
H 5.663868427276611 -0.9560691714286804 -0.258023202419281
H 4.840836048126221 7.178408145904541 0.2802085876464844
H 2.6554620265960693 5.2948994636535645 1.9075462818145752
H 3.3606133460998535 5.209483623504639 -3.4003164768218994
H 9.179155349731445 1.473211646080017 -0.13022102415561676
H 8.740815162658691 7.313542366027832 -0.07400167733430862
H 10.95576286315918 5.499462127685547 -1.7792149782180786
H 11.026344299316406 5.514693260192871 1.5678112506866455
