19
Generated by QM7 dataset
C 1.910891056060791 -0.03280564397573471 0.017820117995142937
C 4.781366348266602 -0.033448152244091034 0.09473197162151337
C 5.862591743469238 2.153796434402466 1.6144119501113892
C 8.518431663513184 1.2550426721572876 2.2595643997192383
N 10.317923545837402 1.923533320426941 0.2512013018131256
C 8.187824249267578 -1.6238983869552612 2.524768590927124
N 5.73974084854126 -2.287135601043701 1.3971123695373535
H 1.2026972770690918 -1.6378633975982666 -1.0802619457244873
H 1.2066845893859863 1.7029078006744385 -0.8610537052154541
H 1.0965702533721924 -0.15584571659564972 1.9178452491760254
H 5.521515369415283 0.01551465131342411 -1.8422183990478516
H 4.787545680999756 2.444606304168701 3.365413188934326
H 5.834529399871826 3.937187671661377 0.5638564825057983
H 9.17017936706543 2.1067612171173096 4.02906608581543
H 9.81249713897705 1.0397083759307861 -1.38499915599823
H 12.056906700134277 1.2262622117996216 0.7026190757751465
H 9.732467651367188 -2.681786060333252 1.6409058570861816
H 8.150691032409668 -2.1488454341888428 4.527273654937744
H 5.928732395172119 -3.749140977859497 0.1584913283586502
