15
Generated by QM7 dataset
C 2.2423300743103027 -0.2099296748638153 -0.021694056689739227
N 5.0016326904296875 -0.1820751130580902 -0.08120153099298477
C 6.056798934936523 -1.1033732891082764 -2.4568707942962646
C 6.033914566040039 1.6888482570648193 -1.8335824012756348
C 8.42689323425293 3.0305349826812744 -1.176694631576538
O 9.743597984313965 3.642069101333618 -3.4377520084381104
H 1.5658081769943237 1.1979162693023682 1.334449052810669
H 1.5839873552322388 -2.0639021396636963 0.6170900464057922
H 1.3451448678970337 0.18617582321166992 -1.847282886505127
H 4.777416706085205 -1.7927265167236328 -3.899827718734741
H 7.814584255218506 -2.1400392055511475 -2.2943921089172363
H 4.734879016876221 2.901372194290161 -2.8544881343841553
H 9.673299789428711 1.89951491355896 0.02681521326303482
H 8.000948905944824 4.793649196624756 -0.1847207248210907
H 10.288104057312012 2.050900936126709 -4.175652027130127
