19
Generated by QM7 dataset
C 1.6587449312210083 -0.7152235507965088 0.17905154824256897
C 4.464931488037109 -0.38081762194633484 -0.4293268918991089
C 5.24863862991333 -2.2377002239227295 -2.500901460647583
C 5.066015720367432 2.3303346633911133 -1.2571402788162231
C 4.727263450622559 4.174972057342529 0.8843729496002197
N 3.137550115585327 6.025089263916016 0.6857627034187317
N 3.0804426670074463 7.5146284103393555 2.7600772380828857
H 1.0859122276306152 0.4909319579601288 1.7597696781158447
H 1.2537387609481812 -2.673830270767212 0.7163195610046387
H 0.47282838821411133 -0.24351011216640472 -1.451026201248169
H 5.548235893249512 -0.8266040086746216 1.2815933227539062
H 4.218284606933594 -1.8785767555236816 -4.261238098144531
H 4.869540691375732 -4.189673900604248 -1.925063967704773
H 7.273688316345215 -2.081892490386963 -2.9021658897399902
H 3.8901524543762207 2.8988208770751953 -2.86456036567688
H 7.049680233001709 2.4640138149261475 -1.840461015701294
H 5.895246505737305 3.8715953826904297 2.59100341796875
H 1.5404669046401978 8.680853843688965 2.6518149375915527
H 4.592695713043213 8.720670700073242 2.770017147064209
