16
Generated by QM7 dataset
C 2.067152500152588 -0.3423050045967102 0.44641000032424927
C 4.8601298332214355 -0.06120822951197624 -0.2705520987510681
N 5.300625324249268 -1.4114742279052734 -2.6589770317077637
C 5.662753105163574 2.708771228790283 -0.32439038157463074
C 6.458044528961182 3.941420793533325 -2.4005191326141357
C 5.656347274780273 4.087005138397217 2.006190061569214
C 5.653021335601807 5.237905025482178 3.959221839904785
H 1.6846530437469482 0.4595246911048889 2.316275119781494
H 1.5174500942230225 -2.338158130645752 0.5178605318069458
H 0.831498384475708 0.610287070274353 -0.9167439341545105
H 6.005549430847168 -1.0150285959243774 1.1719703674316406
H 4.0115861892700195 -0.8097098469734192 -3.95695424079895
H 4.933281421661377 -3.2827377319335938 -2.3942830562591553
H 6.580121040344238 3.017117738723755 -4.225975513458252
H 7.044483184814453 5.905998706817627 -2.32680082321167
H 5.657443046569824 6.264290809631348 5.690569877624512
