17
Generated by QM7 dataset
C 2.308319330215454 -0.7157526612281799 -0.0388149730861187
C 5.150278568267822 -0.3221794068813324 0.2024274617433548
C 5.8648786544799805 2.487352132797241 0.25250521302223206
O 4.712674617767334 3.7034285068511963 2.3716251850128174
C 8.73397445678711 2.953906536102295 0.2505776882171631
C 10.037091255187988 1.8060113191604614 2.4329278469085693
C 11.104578971862793 0.8829934597015381 4.206889629364014
H 1.8753831386566162 -2.736304521560669 -0.13424614071846008
H 1.5785449743270874 0.17806889116764069 -1.7554610967636108
H 1.3001127243041992 0.07258438318967819 1.5860093832015991
H 6.098108291625977 -1.25749933719635 -1.3841488361358643
H 5.767784118652344 -1.2566300630569458 1.9447171688079834
H 5.081662654876709 3.4007322788238525 -1.4348312616348267
H 5.432017803192139 2.956571102142334 3.892174482345581
H 9.082514762878418 4.99658727645874 0.28704941272735596
H 9.553699493408203 2.217858076095581 -1.50344717502594
H 12.062461853027344 0.06649946421384811 5.782165050506592
