16
Generated by QM7 dataset
C 2.0829505920410156 -0.12423059344291687 -0.20649036765098572
C 4.667699337005615 1.081811547279358 -0.07037340104579926
C 6.941323280334473 -0.644339919090271 -0.44077861309051514
C 7.65798282623291 -1.7953909635543823 2.04948353767395
C 7.539912700653076 -4.270969867706299 2.573221206665039
N 4.781252861022949 3.4855432510375977 0.4429895877838135
O 7.275445461273193 4.343686580657959 0.5813175439834595
H 0.6068477630615234 1.3204461336135864 -0.20932497084140778
H 1.8177086114883423 -1.3572579622268677 1.4280093908309937
H 1.9305064678192139 -1.2413043975830078 -1.9359676837921143
H 8.542582511901855 0.40287071466445923 -1.2223504781723022
H 6.441981792449951 -2.097841739654541 -1.8283289670944214
H 8.3274564743042 -0.49459803104400635 3.496201276779175
H 6.896121025085449 -5.641947269439697 1.1909620761871338
H 8.099271774291992 -4.975478649139404 4.417102336883545
H 7.055160045623779 6.129893779754639 0.9804844260215759
