17
Generated by QM7 dataset
C 1.7269262075424194 -0.2908666431903839 -0.28476282954216003
C 4.40531063079834 0.6179026365280151 0.20526205003261566
C 6.7641801834106445 -0.8528522849082947 -0.9914259314537048
C 8.184063911437988 1.7126399278640747 -0.310481995344162
C 5.645670413970947 2.7441091537475586 -1.5577012300491333
C 5.678513526916504 1.6697808504104614 -4.170644283294678
C 6.4224042892456055 -0.7259004712104797 -3.7943243980407715
H 0.36294078826904297 1.1281853914260864 0.3532276153564453
H 1.3607540130615234 -2.036520004272461 0.7634682655334473
H 1.3517400026321411 -0.666563093662262 -2.282203435897827
H 4.5770111083984375 0.9880810976028442 2.246147394180298
H 7.406536102294922 -2.618272304534912 -0.1550709307193756
H 8.482772827148438 2.1214253902435303 1.6977866888046265
H 9.943814277648926 2.099769115447998 -1.3293089866638184
H 5.124861717224121 4.7189106941223145 -1.3081251382827759
H 5.211146354675293 2.605724573135376 -5.916637897491455
H 6.706883907318115 -2.209562301635742 -5.159500598907471
