14
Generated by QM7 dataset
O 2.3590774536132812 0.10433177649974823 1.164317011833191
N 4.355667591094971 0.1357579231262207 -0.5759318470954895
C 5.4762187004089355 2.304029703140259 -0.5738153457641602
C 4.889382839202881 4.578409671783447 0.9993249773979187
C 6.234357833862305 6.627741813659668 -0.45393112301826477
C 8.423945426940918 5.2256598472595215 -1.6206669807434082
O 7.4988112449646 2.736380100250244 -2.10317063331604
H 1.6836514472961426 -1.5977067947387695 0.9444851279258728
H 5.692460060119629 4.316380023956299 2.8871047496795654
H 2.861574411392212 4.938648223876953 1.1329096555709839
H 4.989066123962402 7.345063209533691 -1.948345422744751
H 6.819586753845215 8.226752281188965 0.7139385342597961
H 9.042150497436523 6.095179557800293 -3.39219069480896
H 10.04296875 5.092037200927734 -0.33765625953674316
