16
Generated by QM7 dataset
C 2.0655083656311035 -0.23665040731430054 -0.035715822130441666
C 4.866800785064697 0.010790335945785046 -0.13188399374485016
N 6.250401496887207 -0.8433091640472412 -2.3610239028930664
C 6.101415634155273 1.8914647102355957 -1.8826208114624023
C 8.440404891967773 3.2807536125183105 -1.1047717332839966
N 10.050602912902832 3.5457308292388916 -3.3270139694213867
H 1.2847681045532227 1.0889924764633179 1.3482061624526978
H 1.5353457927703857 -2.151887893676758 0.5419923663139343
H 1.1760900020599365 0.15301112830638885 -1.8648573160171509
H 5.747809886932373 -0.39003947377204895 1.672029733657837
H 5.0598931312561035 -1.3205406665802002 -3.8033950328826904
H 4.9358134269714355 2.9779438972473145 -3.169996738433838
H 9.467357635498047 2.2679548263549805 0.3819136619567871
H 7.9404778480529785 5.150883197784424 -0.3745437264442444
H 10.357022285461426 1.7684246301651 -4.019825458526611
H 11.773825645446777 4.197497367858887 -2.774080276489258
