10
Generated by QM7 dataset
O 2.410856008529663 -0.6108539700508118 1.4624212980270386
C 4.123061180114746 -0.0581657700240612 -0.002910178154706955
C 5.598710536956787 2.368525981903076 0.15369142591953278
C 8.328136444091797 1.8912945985794067 0.040270064026117325
C 10.568161010742188 1.5252357721328735 -0.043879441916942596
C 13.434157371520996 1.0675063133239746 -0.15253868699073792
N 15.596306800842285 0.7205147743225098 -0.2462124228477478
H 4.57198429107666 -1.2949914932250977 -1.6218574047088623
H 5.106020927429199 3.338050127029419 1.9133855104446411
H 5.010438919067383 3.5641746520996094 -1.4284628629684448
