16
Generated by QM7 dataset
O 1.7825031280517578 -0.1484190970659256 -1.4231150150299072
C 4.292134761810303 -0.01551465131342411 -0.36900681257247925
C 6.288025856018066 -1.2331408262252808 -1.9931886196136475
C 6.099865913391113 1.5925099849700928 -1.8660478591918945
C 4.3415703773498535 -0.12931396067142487 2.5244662761688232
C 2.814350128173828 1.6458569765090942 4.154789447784424
N 2.041093111038208 -0.9767427444458008 3.8442699909210205
H 0.6383305788040161 -0.7540385127067566 -0.10387824475765228
H 5.67857027053833 -2.160618305206299 -3.7145023345947266
H 7.875093460083008 -2.135239362716675 -1.0692259073257446
H 7.556863784790039 2.609466075897217 -0.851567268371582
H 5.3615875244140625 2.582650899887085 -3.4994893074035645
H 6.107651710510254 -0.791171669960022 3.344475030899048
H 1.6526788473129272 3.051624298095703 3.2240049839019775
H 3.5585811138153076 2.1838431358337402 5.982665061950684
H 2.516472816467285 -2.029017925262451 5.392711639404297
