21
Generated by QM7 dataset
C 2.2990787029266357 4.139936447143555 -2.916093111038208
C 4.599064350128174 4.767703533172607 -1.3094100952148438
C 6.8411865234375 3.0540430545806885 -1.9611388444900513
C 9.173032760620117 3.5262668132781982 -0.28298649191856384
C 11.229565620422363 1.5807559490203857 -0.8745463490486145
C 10.229106903076172 6.153647422790527 -0.6437730193138123
C 10.468667030334473 7.853116035461426 1.217115879058838
H 0.7278091311454773 5.39548921585083 -2.436612844467163
H 1.6837271451950073 2.191269636154175 -2.599412679672241
H 2.7164247035980225 4.372107982635498 -4.927989959716797
H 4.108850479125977 4.552973747253418 0.6921499967575073
H 5.09647798538208 6.754806995391846 -1.6126734018325806
H 7.34009313583374 3.307039737701416 -3.9590139389038086
H 6.249588966369629 1.0774084329605103 -1.7456156015396118
H 8.61305046081543 3.264709711074829 1.6971251964569092
H 11.840834617614746 1.6948386430740356 -2.8508787155151367
H 10.538492202758789 -0.3416057825088501 -0.5346413254737854
H 12.894546508789062 1.8686178922653198 0.3236722946166992
H 10.82514476776123 6.673019886016846 -2.543647050857544
H 9.903450012207031 7.4302520751953125 3.143238067626953
H 11.24148941040039 9.715327262878418 0.8433469533920288
