16
Generated by QM7 dataset
N 1.8651597499847412 -0.004573137033730745 -0.025360124185681343
C 4.6190385818481445 -0.028893912211060524 0.005310130305588245
C 5.694972991943359 -2.1619977951049805 1.6462726593017578
C 7.252523422241211 -0.5375136733055115 3.445518732070923
C 8.616735458374023 1.4780304431915283 1.803989291191101
C 5.786983966827393 2.194822311401367 1.456298589706421
O 5.5417351722717285 1.581455111503601 4.219437122344971
H 1.198180913925171 -1.5877857208251953 -0.8892106413841248
H 1.2221237421035767 1.5023701190948486 -1.0341904163360596
H 5.3407440185546875 -0.12447626143693924 -1.9327930212020874
H 6.862351417541504 -3.46974515914917 0.5491355061531067
H 4.2485198974609375 -3.2402756214141846 2.659071445465088
H 8.285466194152832 -1.3820322751998901 5.015427589416504
H 9.632898330688477 0.8038328289985657 0.13855472207069397
H 9.767729759216309 2.847136974334717 2.8386709690093994
H 5.336680889129639 4.150972366333008 0.9876842498779297
