18
Generated by QM7 dataset
C 2.8196980953216553 -0.3391113579273224 1.6952166557312012
N 5.475670337677002 0.34876784682273865 1.4660495519638062
C 5.848777770996094 2.997502565383911 0.6590986847877502
C 4.793177127838135 4.918220043182373 2.5458767414093018
C 8.709634780883789 3.5165913105010986 0.24337783455848694
N 9.951638221740723 1.5484604835510254 -1.2742234468460083
H 2.670787811279297 -2.375272274017334 2.0351028442382812
H 1.7609034776687622 0.09002654999494553 -0.030726946890354156
H 1.9236278533935547 0.6034651398658752 3.3031845092773438
H 6.255465984344482 -0.7446843981742859 0.07642052322626114
H 4.89813232421875 3.268829345703125 -1.1666979789733887
H 5.5696845054626465 4.618037223815918 4.440818786621094
H 2.731731414794922 4.811809539794922 2.6669516563415527
H 5.2688212394714355 6.847498416900635 1.9641057252883911
H 9.685867309570312 3.6415212154388428 2.069420099258423
H 8.944546699523926 5.3395915031433105 -0.7094787955284119
H 10.02628231048584 -0.047866761684417725 -0.19244970381259918
H 11.789434432983398 2.0563809871673584 -1.5464006662368774
