21
Generated by QM7 dataset
C 1.9368937015533447 -0.09813347458839417 -0.027193158864974976
C 4.808748245239258 -0.07398277521133423 0.07812127470970154
N 5.732673168182373 2.529228448867798 -0.044559743255376816
C 8.505468368530273 2.5942916870117188 0.0539705790579319
C 9.492056846618652 5.334016799926758 -0.012018658220767975
N 12.265116691589355 5.378916263580322 0.07436072081327438
C 13.206426620483398 7.966404914855957 0.0674821212887764
H 1.239320158958435 -2.0430774688720703 0.06468532234430313
H 1.2463310956954956 0.74415522813797 -1.7866038084030151
H 1.1176029443740845 0.9473574757575989 1.5594775676727295
H 5.54825496673584 -1.1733876466751099 -1.5136895179748535
H 5.429712295532227 -0.9821284413337708 1.8335256576538086
H 5.022570610046387 3.5279107093811035 1.444204330444336
H 9.278573989868164 1.5549044609069824 -1.5644664764404297
H 9.17424201965332 1.6708202362060547 1.7856967449188232
H 8.727020263671875 6.368679523468018 1.6135615110397339
H 8.82199764251709 6.2679948806762695 -1.737546443939209
H 12.955509185791016 4.454405784606934 -1.4702258110046387
H 12.549349784851074 9.004980087280273 1.7315560579299927
H 12.627131462097168 8.982057571411133 -1.6392240524291992
H 15.273749351501465 7.945655822753906 0.1247597187757492
