12
Generated by QM7 dataset
O 4.3059868812561035 -1.0281054973602295 -2.486104726791382
C 4.478707790374756 -0.06606482714414597 0.012963521294295788
C 5.426877498626709 2.555797815322876 0.006406171713024378
C 4.068882942199707 4.770651340484619 -0.013587131164968014
O 5.663717269897461 6.775877475738525 0.012925726361572742
N 8.135686874389648 5.913954734802246 0.03643392026424408
C 7.9586005210876465 3.3972551822662354 0.004176294896751642
H 3.6448848247528076 -2.736398935317993 -2.3576600551605225
H 5.746298313140869 -1.292100191116333 1.0967025756835938
H 2.6013026237487793 -0.1611180454492569 0.8794407248497009
H 2.0806450843811035 5.228664398193359 -0.044635333120822906
H 9.675530433654785 2.290499210357666 -0.011924171820282936
