15
Generated by QM7 dataset
C 1.891351342201233 -0.11616146564483643 0.046090420335531235
O 4.57275915145874 -0.012547781690955162 0.04357708618044853
C 5.468886375427246 2.5294928550720215 0.0
C 8.197650909423828 2.5294928550720215 0.0
C 10.446727752685547 2.5294928550720215 0.0
C 13.103682518005371 2.5294928550720215 0.0
C 14.432764053344727 4.678319454193115 -0.0010771439410746098
H 1.3160241842269897 -2.1005818843841553 0.07997321337461472
H 1.129186987876892 0.7616919279098511 -1.6647164821624756
H 1.1302262544631958 0.8191773891448975 1.7264915704727173
H 4.752170085906982 3.53529953956604 1.6623921394348145
H 4.752113342285156 3.477681875228882 -1.695878028869629
H 14.072110176086426 0.7200612425804138 0.0010393493575975299
H 13.517683029174805 6.514566421508789 -0.001965315081179142
H 16.482398986816406 4.637633800506592 -0.000925965781789273
