14
Generated by QM7 dataset
C 1.578601598739624 0.04926516115665436 0.06532783061265945
C 4.114462852478027 -0.024075111374258995 0.03650951012969017
C 5.73318338394165 2.306429624557495 -0.09218084067106247
O 7.977346420288086 1.8609267473220825 1.3568989038467407
N 9.549428939819336 0.029460830613970757 0.1998952329158783
C 8.33072566986084 -2.038012981414795 -0.31764405965805054
C 5.555360317230225 -2.4652233123779297 0.19594570994377136
H 0.5554850101470947 1.827025055885315 -0.02462313137948513
H 0.45748379826545715 -1.6660959720611572 0.18914268910884857
H 4.772333145141602 3.9469196796417236 0.7228769659996033
H 6.251932144165039 2.7542946338653564 -2.047121524810791
H 9.396247863769531 -3.6387999057769775 -1.117262840270996
H 4.858901500701904 -3.816396474838257 -1.2091602087020874
H 5.3865509033203125 -3.3160347938537598 2.0746169090270996
