14
Generated by QM7 dataset
C 1.925215244293213 1.0453020334243774 2.104588031768799
C 3.716240882873535 0.6163341999053955 0.3658320903778076
C 6.008819103240967 2.1990365982055664 0.04781007021665573
N 5.40828275680542 4.840968132019043 -0.6020289659500122
C 6.710776329040527 5.924801826477051 1.6074955463409424
C 7.24303674697876 3.2127044200897217 2.4753899574279785
O 8.239300727844238 2.2898757457733154 4.327340602874756
H 0.29991844296455383 -0.2024652510881424 2.24393630027771
H 2.0159220695495605 2.595198631286621 3.4452731609344482
H 3.526644706726074 -0.9882133603096008 -0.9032890796661377
H 7.382838726043701 1.3328804969787598 -1.2365423440933228
H 3.518273115158081 5.219272613525391 -0.6541287302970886
H 8.407845497131348 7.008502960205078 1.1519581079483032
H 5.494851112365723 6.995123863220215 2.8875961303710938
