15
Generated by QM7 dataset
C 12.533760070800781 -0.1863647848367691 2.367619037628174
C 9.708657264709473 -0.39517953991889954 2.810929775238037
O 8.35661506652832 0.136627197265625 0.5216777920722961
C 7.863377094268799 2.612622022628784 0.08273220807313919
O 8.461456298828125 4.400397300720215 1.4090365171432495
C 6.456286907196045 2.7899160385131836 -2.324230909347534
C 5.731388092041016 5.0345892906188965 -3.2414660453796387
H 13.582898139953613 -0.7095921635627747 4.069619655609131
H 13.06127643585205 1.7412503957748413 1.834451675415039
H 13.119366645812988 -1.4222078323364258 0.8149443864822388
H 9.090017318725586 0.8400777578353882 4.354533672332764
H 9.232767105102539 -2.3335471153259277 3.356663942337036
H 6.03812837600708 1.0447728633880615 -3.3079655170440674
H 6.152324676513672 6.7853264808654785 -2.2532527446746826
H 4.698407173156738 5.163639068603516 -5.006923675537109
