17
Generated by QM7 dataset
C 4.899322986602783 -2.2470543384552 -2.3613829612731934
C 5.085744380950928 -0.9031757116317749 0.17442172765731812
C 6.445099830627441 1.6343296766281128 -0.005971534643322229
C 9.287418365478516 1.4167276620864868 -0.3198550343513489
O 10.433820724487305 -0.6115154027938843 -0.28398802876472473
C 10.723761558532715 3.89406418800354 -0.6296567320823669
O 13.354203224182129 3.4934799671173096 -0.9757412075996399
H 3.8182106018066406 -4.000040054321289 -2.159163236618042
H 6.766655921936035 -2.7365500926971436 -3.103837490081787
H 3.9361484050750732 -1.0633866786956787 -3.7595722675323486
H 6.028868675231934 -2.139793634414673 1.5422999858856201
H 3.1653101444244385 -0.5763853788375854 0.8778722882270813
H 6.114246845245361 2.6943905353546143 1.7427998781204224
H 5.691099166870117 2.742805242538452 -1.5845921039581299
H 10.456289291381836 5.0425262451171875 1.0675441026687622
H 9.997048377990723 4.901042461395264 -2.2812962532043457
H 13.632427215576172 1.6767162084579468 -0.7502023577690125
