18
Generated by QM7 dataset
C 1.8134757280349731 -0.09681066870689392 0.05102260410785675
C 4.683912754058838 0.055954791605472565 0.1358524113893509
C 5.724245071411133 2.772719621658325 0.12600694596767426
C 4.822391986846924 4.302793025970459 2.4132559299468994
C 8.623425483703613 2.6947872638702393 0.017914604395627975
O 9.662150382995605 5.171008586883545 -0.09964525699615479
H 1.215641975402832 -2.0674548149108887 -0.14615142345428467
H 1.057982087135315 0.9654232859611511 -1.554148554801941
H 0.9623052477836609 0.6362707614898682 1.7866604328155518
H 5.432093143463135 -0.9568061232566833 -1.5124611854553223
H 5.362589359283447 -0.9565982818603516 1.81305992603302
H 5.040957927703857 3.749878168106079 -1.5732159614562988
H 5.36831521987915 3.3860113620758057 4.185441017150879
H 2.765519618988037 4.5217180252075195 2.4053378105163574
H 5.626262664794922 6.208336353302002 2.4030513763427734
H 9.271525382995605 1.656004786491394 -1.6500521898269653
H 9.40284252166748 1.7591838836669922 1.6903411149978638
H 8.935361862182617 6.006343364715576 -1.5668286085128784
