16
Generated by QM7 dataset
C 1.778836965560913 0.055104415863752365 0.39432916045188904
C 4.570529460906982 -0.09308791160583496 -0.21550436317920685
N 6.10084867477417 1.8124741315841675 1.149614930152893
C 7.884957790374756 -0.06897500157356262 2.198941946029663
C 10.462203979492188 0.054802056401968 0.9572785496711731
C 6.096199989318848 -2.117230176925659 1.1903762817382812
O 5.96229362487793 -4.395181655883789 1.4010807275772095
H 0.7769609093666077 -1.557002067565918 -0.42807966470718384
H 0.9459590911865234 1.777306318283081 -0.394877165555954
H 1.4237196445465088 0.04452194646000862 2.4340994358062744
H 4.937627792358398 -0.11279775202274323 -2.2551991939544678
H 5.125428676605225 2.770055055618286 2.5132412910461426
H 7.991878509521484 -0.04149838536977768 4.2654900550842285
H 10.336027145385742 0.02598373405635357 -1.1098740100860596
H 11.621721267700195 -1.5580602884292603 1.5381615161895752
H 11.463985443115234 1.779384970664978 1.5119887590408325
