17
Generated by QM7 dataset
C 1.7004700899124146 -0.03582920879125595 0.20189833641052246
C 4.567864894866943 -0.010204521007835865 -0.06642387062311172
C 5.3812785148620605 0.03906063735485077 -2.8393890857696533
C 5.92825984954834 1.944566011428833 1.636842966079712
N 7.791057586669922 -0.020012199878692627 2.3311095237731934
C 5.966923713684082 -1.996004343032837 1.5685293674468994
H 1.119152545928955 -0.07364262640476227 2.188265085220337
H 0.8876421451568604 -1.7004133462905884 -0.7205336689949036
H 0.8650410175323486 1.6488616466522217 -0.6625568866729736
H 7.441401481628418 0.06425068527460098 -3.0422511100769043
H 4.638030529022217 1.7180067300796509 -3.791867733001709
H 4.6757493019104 -1.6303234100341797 -3.8390164375305176
H 4.827022075653076 2.615248680114746 3.2602689266204834
H 6.729730606079102 3.5921425819396973 0.6788462996482849
H 9.36854362487793 0.015080014243721962 1.2225016355514526
H 6.802201271057129 -3.592785120010376 0.5539165139198303
H 4.879178524017334 -2.7447705268859863 3.165895938873291
