20
Generated by QM7 dataset
C 3.356966257095337 -1.0725330114364624 -2.2729625701904297
C 4.484508991241455 -0.02857265993952751 0.15639373660087585
C 6.034689426422119 2.375631332397461 -0.3053041398525238
C 8.44186019897461 1.9261223077774048 -1.8421995639801025
C 4.486512184143066 4.758179187774658 -1.0437524318695068
C 5.9954962730407715 6.125226020812988 1.018826961517334
N 6.5972418785095215 3.647643804550171 2.1422312259674072
H 2.171351909637451 -2.7157633304595947 -1.8585644960403442
H 4.82930850982666 -1.6776800155639648 -3.5930874347686768
H 2.1851091384887695 0.33950820565223694 -3.2286159992218018
H 5.667118549346924 -1.4848711490631104 1.0380265712738037
H 2.9322879314422607 0.354380339384079 1.4793343544006348
H 9.6278715133667 3.620393991470337 -1.9556776285171509
H 7.989384174346924 1.3800292015075684 -3.7860095500946045
H 9.586845397949219 0.4174216091632843 -1.0056933164596558
H 2.4572486877441406 4.639031887054443 -0.6396344900131226
H 4.743854999542236 5.47022819519043 -2.9670023918151855
H 7.6528239250183105 7.151800632476807 0.3204408586025238
H 4.899020671844482 7.382328510284424 2.2381160259246826
H 8.406087875366211 3.4650397300720215 2.7761778831481934
