17
Generated by QM7 dataset
C 4.928009033203125 -3.2330567836761475 2.9267890453338623
C 5.447721481323242 -2.063354253768921 0.39327090978622437
C 5.708484649658203 -3.4749608039855957 -1.7005078792572021
C 5.595951557159424 0.7865229249000549 0.31996843218803406
N 7.964288711547852 1.6701021194458008 1.4577914476394653
N 8.27769947052002 4.212086200714111 1.5270121097564697
C 10.214290618896484 4.895562171936035 2.844226837158203
H 3.11629056930542 -2.5597474575042725 3.6685631275177
H 6.415412425994873 -2.748115301132202 4.280513286590576
H 4.829591751098633 -5.297525882720947 2.8194901943206787
H 5.579964637756348 -5.522289752960205 -1.640244483947754
H 6.068572044372559 -2.6218249797821045 -3.5335800647735596
H 3.9794418811798096 1.5816062688827515 1.346996784210205
H 5.466089725494385 1.479617714881897 -1.6320241689682007
H 9.409173011779785 0.8223521113395691 0.4917634427547455
H 10.667523384094238 6.918155193328857 3.0310072898864746
H 11.471355438232422 3.555708646774292 3.835425853729248
