12
Generated by QM7 dataset
C 1.8523095846176147 0.12126372754573822 -0.009051788598299026
C 4.648310661315918 -0.05497213453054428 -0.011338356882333755
N 6.07603645324707 2.0330617427825928 -0.021391699090600014
N 8.455466270446777 1.153923511505127 -0.02084367908537388
C 8.597573280334473 -1.4182205200195312 -0.011338356882333755
C 6.145464897155762 -2.2686541080474854 -0.0050644660368561745
H 1.211805820465088 2.0886387825012207 0.01738548092544079
H 1.0734400749206543 -0.8275299668312073 1.6557213068008423
H 1.074271559715271 -0.7829702496528625 -1.6988259553909302
H 9.891526222229004 2.4228744506835938 -0.027438823133707047
H 10.392132759094238 -2.3912405967712402 -0.009977754205465317
H 5.514220714569092 -4.211065769195557 0.002910178154706955
