18
Generated by QM7 dataset
C 2.71022629737854 0.6993498206138611 -1.2151695489883423
O 5.3915019035339355 0.8527767062187195 -1.18914794921875
C 6.258054733276367 2.747699499130249 0.5320146083831787
C 9.134368896484375 2.803314208984375 0.4386621415615082
C 10.36150074005127 4.032939910888672 -1.9088879823684692
C 12.232612609863281 5.171481132507324 -0.0023432604502886534
N 10.249213218688965 4.905275344848633 1.9570571184158325
H 2.156952381134033 -0.8008281588554382 -2.5233511924743652
H 1.8909167051315308 2.4817583560943604 -1.8696950674057007
H 1.9908075332641602 0.23209616541862488 0.666657567024231
H 5.620234489440918 2.2661406993865967 2.4440016746520996
H 5.453428268432617 4.583436489105225 0.0019464179640635848
H 9.962919235229492 0.9590170979499817 0.9148542284965515
H 9.187337875366211 5.440824031829834 -2.8758609294891357
H 11.161572456359863 2.7379863262176514 -3.304110527038574
H 13.907628059387207 4.003120422363281 0.34449708461761475
H 12.827423095703125 7.113533973693848 -0.3771137595176697
H 10.908689498901367 4.3764166831970215 3.6871769428253174
