19
Generated by QM7 dataset
C 4.507393836975098 -1.2157175540924072 -2.700834274291992
N 6.290444850921631 -0.26854899525642395 -0.8234670758247375
N 7.2179036140441895 2.0710642337799072 -1.2846735715866089
C 8.89754867553711 2.7903318405151367 0.344213604927063
C 10.116762161254883 5.3608317375183105 0.11960076540708542
C 9.458853721618652 6.9197235107421875 2.44836688041687
C 12.963445663452148 5.037991046905518 -0.15503312647342682
H 3.927058696746826 -3.137436628341675 -2.2077293395996094
H 5.378670692443848 -1.2748281955718994 -4.575593948364258
H 2.818847894668579 -0.02445305697619915 -2.7837555408477783
H 5.460439205169678 -0.37157684564590454 0.919200599193573
H 9.503073692321777 1.58334481716156 1.939652681350708
H 9.372626304626465 6.309304237365723 -1.5652601718902588
H 10.168956756591797 6.032345771789551 4.179715156555176
H 7.406687259674072 7.110774993896484 2.6479032039642334
H 10.269962310791016 8.818822860717773 2.3175411224365234
H 13.78097915649414 4.089991092681885 1.4944899082183838
H 13.895590782165527 6.87225341796875 -0.3717847168445587
H 13.414334297180176 3.8881680965423584 -1.8163480758666992
