15
Generated by QM7 dataset
C 1.8714714050292969 0.007502212654799223 0.325486421585083
C 4.632323265075684 0.02707977592945099 -0.12595024704933167
C 6.197394847869873 -1.9191303253173828 -0.4713166058063507
O 8.684576988220215 -1.22301185131073 -0.8773809671401978
C 8.761054039001465 1.404331088066101 -0.8109381794929504
C 10.87932300567627 2.7172560691833496 -1.2064388990402222
C 6.150094985961914 2.415353536605835 -0.2825896441936493
H 1.1205130815505981 -1.9202451705932617 0.33865782618522644
H 0.8916672468185425 1.061761498451233 -1.159781575202942
H 1.4302959442138672 0.8785147666931152 2.148184061050415
H 5.828822612762451 -3.917515754699707 -0.494049996137619
H 12.647143363952637 1.7521541118621826 -1.588447093963623
H 10.885993957519531 4.76500129699707 -1.1642414331436157
H 5.484873294830322 3.620375156402588 -1.8254942893981934
H 6.094858169555664 3.4439125061035156 1.5107982158660889
