16
Generated by QM7 dataset
C 0.22380027174949646 0.33512404561042786 -2.0640344619750977
C 2.518702507019043 -0.3482765257358551 -0.4839777648448944
C 4.189863204956055 1.9405219554901123 0.0252845361828804
O 6.300573825836182 1.1282799243927002 1.4990630149841309
C 7.953649520874023 3.1663873195648193 2.1827847957611084
C 9.520950317382812 4.04590368270874 0.059998806565999985
N 10.74133586883545 4.787300109863281 -1.6106513738632202
H -0.944655179977417 -1.339381217956543 -2.3933193683624268
H 0.7901511788368225 1.0941513776779175 -3.903210401535034
H -0.9401954412460327 1.7522296905517578 -1.1069259643554688
H 3.6224539279937744 -1.8155921697616577 -1.4447901248931885
H 1.9117414951324463 -1.1783387660980225 1.3152872323989868
H 3.127251148223877 3.3795483112335205 1.0692826509475708
H 4.847336292266846 2.749589204788208 -1.763246774673462
H 9.190286636352539 2.4477622509002686 3.6784842014312744
H 6.853847503662109 4.718929767608643 3.000148057937622
