15
Generated by QM7 dataset
C 5.807695388793945 -2.1452548503875732 1.009397268295288
O 4.4290080070495605 0.07245209813117981 0.37482717633247375
C 5.828085422515869 2.24096941947937 0.22918598353862762
C 4.842536449432373 4.56134557723999 -0.050380099564790726
C 6.864808082580566 6.385781288146973 -0.1603432595729828
C 9.091888427734375 5.1923627853393555 0.04265112057328224
C 8.666964530944824 2.3936972618103027 0.31584882736206055
H 4.471469879150391 -3.7193968296051025 1.1110833883285522
H 6.709113597869873 -1.9517658948898315 2.861952543258667
H 7.208700656890869 -2.5911357402801514 -0.44574859738349915
H 2.859760284423828 5.013518810272217 -0.18271762132644653
H 6.5817461013793945 8.394145011901855 -0.377756267786026
H 10.925262451171875 6.085825443267822 0.017309891059994698
H 9.537958145141602 1.3686530590057373 -1.2539844512939453
H 9.423969268798828 1.7206145524978638 2.1176459789276123
