20
Generated by QM7 dataset
C 5.975975513458252 -3.2281434535980225 -0.1417483538389206
C 5.0849504470825195 -0.7025246024131775 0.9208068251609802
C 6.944630146026611 1.4784839153289795 0.38327425718307495
N 5.801553726196289 3.8798344135284424 1.1604052782058716
C 9.545025825500488 1.3232996463775635 1.5873510837554932
C 11.577841758728027 2.8130273818969727 0.25433823466300964
C 10.104894638061523 -0.0023621576838195324 3.6835107803344727
H 4.51890230178833 -4.669173240661621 0.1426176279783249
H 7.700822830200195 -3.890964984893799 0.7827056646347046
H 6.342355728149414 -3.0867919921875 -2.173128366470337
H 4.7151312828063965 -0.893764853477478 2.950958490371704
H 3.25673508644104 -0.26682934165000916 0.04023227095603943
H 7.199988842010498 1.5525233745574951 -1.6744674444198608
H 5.533590316772461 3.8400747776031494 3.0672333240509033
H 4.049626350402832 4.0365118980407715 0.3821971118450165
H 11.07933235168457 4.8188018798828125 0.16999976336956024
H 11.823317527770996 2.1127326488494873 -1.6772453784942627
H 13.408079147338867 2.664759397506714 1.209046721458435
H 8.696084976196289 -1.07241952419281 4.716434955596924
H 12.007811546325684 -0.02842148020863533 4.451949119567871
