15
Generated by QM7 dataset
C 5.461251735687256 -2.135749578475952 0.4478084146976471
C 4.288865566253662 0.08870374411344528 0.17846573889255524
C 5.4679036140441895 2.5643773078918457 -0.0371142216026783
C 3.9944841861724854 4.6248779296875 -0.24664705991744995
C 8.308124542236328 2.841524600982666 0.02681521326303482
C 9.368619918823242 2.418471574783325 -2.5873184204101562
O 10.744397163391113 3.9448788166046143 -3.671548843383789
H 4.356234550476074 -3.8605971336364746 0.5994400382041931
H 7.494899749755859 -2.349496603012085 0.5455450415611267
H 2.228062629699707 0.056294940412044525 0.12207631021738052
H 1.9450950622558594 4.514309883117676 -0.28215500712394714
H 4.804005146026611 6.506837368011475 -0.4041935205459595
H 9.198846817016602 1.5215507745742798 1.3452394008636475
H 8.850626945495605 4.745026588439941 0.642374575138092
H 8.941919326782227 0.5773113369941711 -3.4657199382781982
