19
Generated by QM7 dataset
C 4.5493645668029785 -1.0069783926010132 -2.899860382080078
C 4.600292682647705 -0.014872144907712936 -0.20458175241947174
C 6.420816898345947 2.197014570236206 0.03165291249752045
O 5.449081897735596 4.443728923797607 -1.2247881889343262
C 6.031722545623779 5.961292266845703 0.9808812737464905
C 6.425295829772949 3.5887222290039062 2.5950663089752197
C 8.839288711547852 3.458501100540161 4.124931812286377
H 3.263576030731201 -2.6196329593658447 -3.049280881881714
H 6.431890964508057 -1.6224621534347534 -3.499753952026367
H 3.909919023513794 0.4521925747394562 -4.220949172973633
H 5.192986488342285 -1.5394842624664307 1.0650874376296997
H 2.687455177307129 0.5438820719718933 0.35884010791778564
H 8.317780494689941 1.7478833198547363 -0.683230459690094
H 7.6997456550598145 7.139196395874023 0.6491587162017822
H 4.4354329109191895 7.149722099304199 1.5380103588104248
H 4.769838809967041 3.157996892929077 3.767320156097412
H 10.501321792602539 3.9107882976531982 2.978095054626465
H 9.101091384887695 1.5616507530212402 4.907770156860352
H 8.771390914916992 4.793252468109131 5.703741550445557
