15
Generated by QM7 dataset
N 2.6461079120635986 2.913825511932373 1.514086365699768
N 5.031093597412109 3.5452206134796143 0.8375833034515381
C 6.653971195220947 1.7657978534698486 1.2293990850448608
O 9.143421173095703 1.9591925144195557 0.6847611665725708
C 9.939732551574707 4.337639808654785 -0.3303430378437042
C 12.730461120605469 4.316720485687256 -0.8745274543762207
C 14.333477973937988 2.384683132171631 -0.5305594801902771
H 1.5139352083206177 4.477328300476074 1.3974146842956543
H 1.8802019357681274 1.6536426544189453 0.26255854964256287
H 6.230502605438232 -0.10858366638422012 2.0374648571014404
H 9.543437957763672 5.842825412750244 1.037384033203125
H 8.926593780517578 4.717304229736328 -2.0977282524108887
H 13.479964256286621 6.079607963562012 -1.6220464706420898
H 13.702895164489746 0.5783317685127258 0.20700059831142426
H 16.321393966674805 2.575526714324951 -0.9889314770698547
