15
Generated by QM7 dataset
C 4.534738063812256 1.1928707361221313 1.2764532566070557
O 5.73006534576416 3.5312745571136475 0.705359160900116
N 8.081905364990234 3.59085750579834 1.929977297782898
C 9.17123794555664 5.72303581237793 1.4404247999191284
N 11.506882667541504 6.612586498260498 2.2301602363586426
C 12.344635963439941 5.835209846496582 4.766040325164795
C 13.539320945739746 4.728397369384766 2.469532012939453
H 2.7320525646209717 1.1171493530273438 0.27032533288002014
H 4.171872615814209 1.0545238256454468 3.3076820373535156
H 5.712566375732422 -0.3888489603996277 0.6524468660354614
H 8.238922119140625 7.149590015411377 0.23381581902503967
H 11.00786304473877 4.7189483642578125 5.835266590118408
H 13.321907997131348 7.323822498321533 5.765951156616211
H 15.352022171020508 5.441183090209961 1.8588669300079346
H 13.04942798614502 2.825650691986084 1.9055430889129639
