15
Generated by QM7 dataset
O 2.110786199569702 -0.6280316114425659 0.1949252486228943
C 4.467879295349121 0.44901782274246216 -0.5599825382232666
C 5.277834892272949 -0.7555881142616272 -3.073582887649536
C 7.851623058319092 -0.017328789457678795 -3.8325157165527344
C 9.946043968200684 0.5911630392074585 -4.459961414337158
C 4.068126678466797 3.2577555179595947 -0.7373900413513184
C 5.314703464508057 4.97445821762085 0.6444910764694214
H 1.5881825685501099 0.2689458131790161 1.7125643491744995
H 5.851650238037109 -0.0111682815477252 0.9134558439254761
H 3.9255847930908203 -0.2680009603500366 -4.568412780761719
H 5.1806464195251465 -2.8194713592529297 -2.8947579860687256
H 11.800508499145508 1.1406197547912598 -5.021361351013184
H 2.664419412612915 3.8998467922210693 -2.096329927444458
H 6.74348783493042 4.431029796600342 2.0132954120635986
H 4.940159797668457 6.978702068328857 0.4124894142150879
