16
Generated by QM7 dataset
C 1.6632802486419678 -0.04083698242902756 0.22417820990085602
C 4.523002624511719 -0.01150843221694231 -0.07129936665296555
C 5.345411777496338 0.036887455731630325 -2.8338711261749268
C 5.9107985496521 1.9225696325302124 1.604509711265564
O 7.556995868682861 -0.027041980996727943 2.6052331924438477
C 5.945040702819824 -1.9727228879928589 1.5459282398223877
H 1.1023716926574707 -0.07725200802087784 2.2157416343688965
H 0.8451422452926636 -1.708236813545227 -0.6880492568016052
H 0.816626250743866 1.6394697427749634 -0.6352503299713135
H 7.406932830810547 0.058808278292417526 -3.017193555831909
H 4.611744403839111 1.7186492681503296 -3.790034770965576
H 4.643000602722168 -1.6291518211364746 -3.8398289680480957
H 4.798978328704834 2.792675018310547 3.119030714035034
H 6.97821044921875 3.3899986743927 0.6136696934700012
H 7.0370378494262695 -3.3901119232177734 0.5100748538970947
H 4.848432540893555 -2.907343626022339 3.0318009853363037
