20
Generated by QM7 dataset
C 2.602417469024658 -0.8667417764663696 -0.031142687425017357
N 5.345165729522705 -0.6250269412994385 -0.32667696475982666
C 6.074146747589111 -1.3854527473449707 -2.885781764984131
C 6.120596408843994 1.9802250862121582 0.24256524443626404
C 8.945585250854492 2.2127559185028076 0.3389034867286682
C 10.402942657470703 3.3265228271484375 -1.8462624549865723
C 10.145599365234375 4.789133071899414 0.5727192759513855
H 2.0310964584350586 -0.3972960114479065 1.9027841091156006
H 2.00250506401062 -2.8204541206359863 -0.3632998466491699
H 1.5650900602340698 0.3641502261161804 -1.3351670503616333
H 5.404862403869629 -3.3035247325897217 -3.2902400493621826
H 8.131567001342773 -1.450648307800293 -3.089078664779663
H 5.306974411010742 -0.11506542563438416 -4.329683780670166
H 5.413177013397217 2.5043785572052 2.120197057723999
H 5.301362037658691 3.322214126586914 -1.1108566522598267
H 9.808528900146484 0.6989530324935913 1.420015811920166
H 9.365312576293945 3.9900622367858887 -3.483086585998535
H 12.226547241210938 2.505077600479126 -2.2888741493225098
H 11.801528930664062 4.965501308441162 1.766289234161377
H 8.934757232666016 6.441055774688721 0.5726814866065979
