16
Generated by QM7 dataset
N 1.7475430965423584 0.1669006049633026 -0.2641648054122925
C 3.9354302883148193 0.050380099564790726 -0.36891233921051025
C 6.700760841369629 -0.09873819351196289 -0.5019679665565491
C 7.91608190536499 2.3096611499786377 0.5250793099403381
C 10.74602222442627 2.1912319660186768 0.36571869254112244
C 12.33588695526123 3.629483699798584 2.2381160259246826
C 12.246767044067383 0.7905480265617371 2.3376479148864746
H 7.290733337402344 -0.4063478112220764 -2.4639949798583984
H 7.361333847045898 -1.737886667251587 0.5794656276702881
H 7.308969497680664 2.6218626499176025 2.484215021133423
H 7.262444496154785 3.9510772228240967 -0.5608140230178833
H 11.413511276245117 2.1278882026672363 -1.5726490020751953
H 11.405120849609375 4.669399738311768 3.7387475967407227
H 14.05769157409668 4.511437892913818 1.5613672733306885
H 13.910122871398926 -0.23995742201805115 1.7276253700256348
H 11.25959300994873 -0.07638273388147354 3.910032272338867
