17
Generated by QM7 dataset
C 2.7656142711639404 -0.48031169176101685 1.209027886390686
C 4.120642185211182 0.8121854066848755 -0.4922925531864166
C 5.685354232788086 3.1010026931762695 0.12137711048126221
C 8.47256851196289 2.6713547706604004 -0.5355672836303711
C 10.137076377868652 4.938289165496826 0.1306367665529251
C 9.621445655822754 7.138421535491943 -1.4894254207611084
C 9.202531814575195 8.935456275939941 -2.8068857192993164
H 1.6574788093566895 -2.1124870777130127 0.6449446082115173
H 2.720827579498291 0.05599258467555046 3.1884593963623047
H 4.08757209777832 0.20892812311649323 -2.4584014415740967
H 5.511178493499756 3.5862276554107666 2.1291356086730957
H 4.930408954620361 4.701449871063232 -0.9547085165977478
H 8.66310977935791 2.2236597537994385 -2.5526232719421387
H 9.169272422790527 1.0212458372116089 0.5111709237098694
H 12.123518943786621 4.393631935119629 -0.09476976841688156
H 9.879866600036621 5.448212623596191 2.1214821338653564
H 8.828289985656738 10.532218933105469 -3.9779491424560547
