21
Generated by QM7 dataset
C 2.170161485671997 0.5080339908599854 -1.3501715660095215
C 4.948191165924072 0.9956967234611511 -0.8059682250022888
C 5.519077301025391 3.8254482746124268 -0.6705693006515503
C 8.335034370422363 4.305476665496826 -0.19080564379692078
C 8.968035697937012 7.082372188568115 0.05049348250031471
C 8.651997566223145 8.682403564453125 -2.2762129306793213
C 9.844924926757812 8.062743186950684 2.2187273502349854
H 1.8032522201538086 -1.5260483026504517 -1.439650058746338
H 1.6117095947265625 1.339570164680481 -3.1607558727264404
H 0.9701476097106934 1.3126038312911987 0.1314682513475418
H 6.093667507171631 0.1172764003276825 -2.290915012359619
H 5.460609436035156 0.08787226676940918 0.983526885509491
H 4.392006874084473 4.690602779388428 0.8398698568344116
H 4.939914226531982 4.718098163604736 -2.449104070663452
H 9.457738876342773 3.4957098960876465 -1.7342016696929932
H 8.905145645141602 3.293490409851074 1.5277490615844727
H 9.692121505737305 7.858955383300781 -3.8635828495025635
H 9.362855911254883 10.606182098388672 -1.9955697059631348
H 6.65563440322876 8.82713794708252 -2.797663927078247
H 10.10619831085205 6.907988548278809 3.895859479904175
H 10.32931900024414 10.051188468933105 2.382906913757324
