13
Generated by QM7 dataset
C 1.8072962760925293 0.06135940924286842 0.6546767354011536
C 4.593754291534424 0.04210309684276581 -0.07744097709655762
O 4.8119988441467285 -1.0047106742858887 -2.5545129776000977
C 5.720938205718994 2.707637310028076 0.0
C 8.448795318603516 2.6476197242736816 -0.036377228796482086
N 10.623170852661133 2.5998096466064453 -0.06536562740802765
H 1.5413739681243896 0.7492197155952454 2.5873184204101562
H 1.0123451948165894 -1.8451474905014038 0.5182384848594666
H 0.708307147026062 1.2582364082336426 -0.6296945214271545
H 5.613280296325684 -1.216737985610962 1.213525414466858
H 3.6585097312927246 -0.1281234323978424 -3.6860809326171875
H 5.100918769836426 3.679788112640381 1.721483826637268
H 5.0330400466918945 3.811105251312256 -1.6131268739700317
