15
Generated by QM7 dataset
C 1.9616490602493286 -0.01628943905234337 -0.06865374743938446
C 4.7780022621154785 -0.0011338356416672468 -0.023980624973773956
C 6.311836242675781 -1.412608027458191 -1.95991051197052
O 4.9244184494018555 -2.7270259857177734 -3.891834259033203
C 6.246206283569336 1.443127155303955 -1.9998971223831177
C 8.455957412719727 2.810079336166382 -1.2187978029251099
C 10.296758651733398 3.9593729972839355 -0.5698658227920532
H 1.227150321006775 1.4239085912704468 1.2216891050338745
H 1.247805118560791 -1.8562591075897217 0.5501937866210938
H 1.1986721754074097 0.3753941059112549 -1.9513312578201294
H 5.484023094177246 -0.034865446388721466 1.901593565940857
H 8.023890495300293 -2.3268954753875732 -1.2872436046600342
H 3.890209197998047 -1.6025255918502808 -4.910264492034912
H 5.178038597106934 2.332186698913574 -3.5073506832122803
H 11.93471622467041 4.980978012084961 0.007955746725201607
