14
Generated by QM7 dataset
C 0.629014253616333 -2.7277441024780273 0.09639493376016617
C -2.129589080810547 -1.8091859817504883 -0.08762659877538681
C -2.489128351211548 1.0067704916000366 -0.0060849180445075035
C -0.5512897968292236 2.636073589324951 0.024490850046277046
C 2.0303027629852295 1.7750953435897827 -0.028893912211060524
C 2.6050820350646973 -0.690222442150116 0.0077289799228310585
H 0.9904054403305054 -4.0732293128967285 -1.438742995262146
H 0.8710503578186035 -3.7877860069274902 1.8621172904968262
H -3.2240617275238037 -2.664835214614868 1.450648307800293
H -2.960407257080078 -2.516812801361084 -1.850684404373169
H -4.415080547332764 1.716003656387329 0.015344575978815556
H -0.8831446170806885 4.660858154296875 0.07490874081850052
H 3.510279655456543 3.196547269821167 -0.08445186167955399
H 4.571606636047363 -1.277114748954773 -0.013889486901462078
