13
Generated by QM7 dataset
C 2.063032865524292 -0.5497024059295654 0.337127149105072
N 4.78000545501709 -0.16627700626850128 0.21217845380306244
C 5.565413475036621 2.0901126861572266 -0.17578232288360596
N 4.291926860809326 4.330968856811523 -0.5217911601066589
O 5.540166854858398 6.4814772605896 0.39274176955223083
C 8.296710014343262 2.094477891921997 -0.3011656403541565
C 10.565402030944824 2.098937749862671 -0.4107697606086731
H 1.6718406677246094 -2.573958158493042 0.49896329641342163
H 1.1133511066436768 0.12833130359649658 -1.372338056564331
H 1.2514711618423462 0.37739720940589905 1.999216914176941
H 2.459383964538574 4.2643938064575195 0.045334529131650925
H 6.85694694519043 6.78577995300293 -0.8668362498283386
H 12.576505661010742 2.068286418914795 -0.49701687693595886
