12
Generated by QM7 dataset
C 1.889726161956787 0.0 0.0
C 4.618490695953369 0.0 0.0
C 6.86756706237793 0.0 0.0
C 9.524521827697754 0.0 0.0
C 10.766109466552734 2.150489330291748 0.0
C 13.423065185546875 2.150489330291748 0.0
N 15.598158836364746 2.150489330291748 0.0
H 1.1451740264892578 1.9291836023330688 0.022053103893995285
H 1.145060658454895 -0.9836024641990662 1.6596330404281616
H 1.1450417041778564 -0.9454299807548523 -1.681723952293396
H 10.486714363098145 -1.8146662712097168 -0.0
H 9.81387710571289 3.9641730785369873 0.0
