14
Generated by QM7 dataset
C 1.76952064037323 0.0032125343568623066 1.8866459131240845
C 0.553406298160553 1.8442026376724243 -0.05094701796770096
C -2.2884204387664795 1.4725879430770874 0.15629924833774567
C -2.3134782314300537 -1.41776704788208 0.17391149699687958
C 0.5244935154914856 -1.8393460512161255 -0.029876569285988808
O 1.4038397073745728 -0.017272096127271652 -2.011235475540161
H 3.835841655731201 -0.013587131164968014 1.9345693588256836
H 1.0087735652923584 0.021108241751790047 3.8060219287872314
H 1.3788954019546509 3.7181684970855713 -0.2717426121234894
H -3.071220636367798 2.274266481399536 1.8936567306518555
H -3.2993295192718506 2.242462396621704 -1.4737218618392944
H -3.336575984954834 -2.1914587020874023 -1.4475113153457642
H -3.108656167984009 -2.187187910079956 1.920906662940979
H 1.3170068264007568 -3.7296202182769775 -0.2277686893939972
