13
Generated by QM7 dataset
N 2.459969997406006 0.5736830830574036 -1.2859586477279663
C 4.44338846206665 0.42734265327453613 0.11986532807350159
N 6.08042049407959 2.3199033737182617 0.8414761424064636
C 6.665271759033203 4.256778240203857 -1.0703030824661255
C 4.972039699554443 4.872318744659424 1.0964946746826172
C 5.916676044464111 6.389938831329346 3.2281057834625244
O 5.993096351623535 8.700336456298828 3.1092607975006104
H 1.6610692739486694 -1.1858597993850708 -1.458263874053955
H 5.020832061767578 -1.40622079372406 0.9300098419189453
H 5.836702823638916 3.9551589488983154 -2.9151482582092285
H 8.613541603088379 4.868614673614502 -1.0220017433166504
H 2.9635818004608154 5.014595985412598 0.7235194444656372
H 6.521236896514893 5.352346897125244 4.9308247566223145
