16
Generated by QM7 dataset
C 2.0938732624053955 -0.27026861906051636 0.183908149600029
C 4.966861724853516 -0.20705729722976685 0.11538667976856232
N 5.842617511749268 2.4092307090759277 -0.020295659080147743
C 8.601069450378418 2.5362770557403564 -0.06699079275131226
C 9.446514129638672 5.279932498931885 -0.2016148865222931
H 1.4266865253448486 -2.2267966270446777 0.26104676723480225
H 1.2855240106582642 0.612535834312439 -1.5043542385101318
H 1.3610185384750366 0.7183226943016052 1.8477553129196167
H 5.622426509857178 -1.2685164213180542 -1.5378968715667725
H 5.705820083618164 -1.1356309652328491 1.8133811950683594
H 5.172879695892334 3.396820545196533 1.4929403066635132
H 9.337533950805664 1.5260294675827026 -1.7175343036651611
H 9.399006843566895 1.6639416217803955 1.63344144821167
H 8.716418266296387 6.205898284912109 -1.9031243324279785
H 11.512117385864258 5.387231349945068 -0.2553964853286743
H 8.796770095825195 6.34851598739624 1.44804048538208
