15
Generated by QM7 dataset
C 1.4254204034805298 -2.2404592037200928 1.155095100402832
C 3.117802381515503 -0.2790180742740631 -0.13199737668037415
O 1.8823751211166382 1.9843069314956665 -0.9185958504676819
C -0.1575842648744583 2.711681365966797 0.6391998529434204
C -2.584238290786743 1.2699337005615234 0.15448510646820068
N -2.899406909942627 -1.1364057064056396 -0.25513193011283875
N -0.9093928933143616 -2.7294070720672607 -0.21894367039203644
H 2.4814748764038086 -4.012757778167725 1.336527705192566
H 0.9730199575424194 -1.65825355052948 3.091648578643799
H 3.9858858585357666 -1.1003308296203613 -1.8231321573257446
H 4.661708831787109 0.24517306685447693 1.144455909729004
H 0.3274895250797272 2.643915891647339 2.650473117828369
H -0.5668611526489258 4.693380355834961 0.20138812065124512
H -4.323107719421387 2.4192652702331543 0.21983183920383453
H -0.5739476084709167 -3.469027042388916 -1.970889925956726
