14
Generated by QM7 dataset
C -2.4496898651123047 1.226054310798645 0.09397608041763306
C -1.9316213130950928 -1.5075857639312744 -0.28030309081077576
N -0.5808262228965759 -3.013054847717285 1.593908429145813
C 0.8488649725914001 -2.090585231781006 -0.5834529399871826
C 2.1559696197509766 0.49971917271614075 -0.5385152697563171
O 1.8687502145767212 1.9790157079696655 1.7201987504959106
C 0.0649309903383255 2.4054324626922607 -0.25275087356567383
H -3.770684003829956 1.9119114875793457 -1.3424803018569946
H -3.242392063140869 1.6220086812973022 1.9628396034240723
H -3.304847478866577 -2.492907762527466 -1.427744746208191
H -0.10892381519079208 -1.9534666538238525 3.143616199493408
H 1.403537392616272 -3.473637819290161 -1.984269142150879
H 3.7155039310455322 0.8949742913246155 -1.794162631034851
H 0.10023107379674911 4.180678844451904 -1.2506585121154785
