15
Generated by QM7 dataset
C 1.889726161956787 -0.04401172325015068 0.31507402658462524
C 4.762109756469727 0.0 0.0
C 5.5110650062561035 -1.3734151124954224 -2.4349687099456787
C 8.333144187927246 -1.7217483520507812 -2.5865626335144043
O 9.352651596069336 -3.807023286819458 -2.63219952583313
C 5.672995567321777 2.5722384452819824 0.0
C 6.423746109008789 4.692322254180908 0.0
H 1.31914222240448 0.9015694260597229 2.067190408706665
H 1.1864267587661743 -1.9893336296081543 0.389453649520874
H 0.939723014831543 0.9196163415908813 -1.253833293914795
H 5.595611572265625 -1.0043705701828003 1.6125978231430054
H 4.9085259437561035 -0.33434924483299255 -4.122796535491943
H 4.636972427368164 -3.2508580684661865 -2.502715587615967
H 9.472346305847168 0.019501972943544388 -2.7096028327941895
H 7.087474346160889 6.594841957092285 0.012169836089015007
