13
Generated by QM7 dataset
C 1.9188278913497925 0.03683076053857803 0.03312689810991287
C 4.744025230407715 -0.009297452867031097 0.1366838961839676
C 6.1805949211120605 2.081986904144287 0.03170960396528244
C 8.862286567687988 1.360432744026184 0.03189857676625252
N 10.802714347839355 2.8102684020996094 -0.02757110446691513
S 9.084443092346191 -1.9490635395050049 0.0750410258769989
N 5.958230972290039 -2.3151602745056152 0.3559299111366272
H 1.183837890625 1.969396948814392 -0.054518599063158035
H 1.1213635206222534 -0.8684803247451782 1.7141138315200806
H 1.2439311742782593 -0.9769695401191711 -1.6392428874969482
H 5.545798301696777 4.0062761306762695 -0.1171819195151329
H 10.252765655517578 4.662672519683838 -0.05100370943546295
H 5.076352596282959 -3.813354015350342 -0.467215895652771
