18
Generated by QM7 dataset
C 1.3136998414993286 1.3706183433532715 0.6659017205238342
C 4.098872661590576 1.0417304039001465 0.9923896789550781
C 5.8141961097717285 2.777859687805176 0.3097072243690491
C 8.49647331237793 2.4064340591430664 0.642733633518219
C 10.232545852661133 4.068126678466797 -0.16684392094612122
C 13.01367473602295 3.717355966567993 0.15399378538131714
N 14.185985565185547 3.4185335636138916 -2.313610553741455
H 0.366021066904068 1.1832897663116455 2.4942684173583984
H 0.5764042735099792 -0.08783446997404099 -0.6012352705001831
H 0.8296464681625366 3.2197532653808594 -0.12413611263036728
H 4.70118522644043 -0.737068772315979 1.8276864290237427
H 5.199260234832764 4.546454429626465 -0.541312038898468
H 9.101393699645996 0.6771833896636963 1.576088309288025
H 9.651473999023438 5.795053005218506 -1.1189634799957275
H 13.444437980651855 2.072953939437866 1.3357717990875244
H 13.805563926696777 5.381429672241211 1.095436453819275
H 13.457741737365723 1.8439191579818726 -3.1524410247802734
H 16.063201904296875 3.0691609382629395 -2.076676845550537
