14
Generated by QM7 dataset
O 1.6785870790481567 -0.3391869366168976 0.022147590294480324
C 3.996997594833374 -0.16410382091999054 -0.0057636648416519165
C 5.306502342224121 2.3770487308502197 -0.10573017597198486
C 8.191755294799805 2.3455281257629395 -0.06487429887056351
C 9.38536262512207 -0.21023203432559967 -0.02774117887020111
C 8.036287307739258 -2.336325168609619 0.01848152093589306
N 5.464653491973877 -2.2875702381134033 0.034789856523275375
H 4.617583751678467 3.4897572994232178 1.5005748271942139
H 4.66123628616333 3.3306422233581543 -1.8284045457839966
H 8.855880737304688 3.4041714668273926 1.5899211168289185
H 8.898720741271973 3.3791136741638184 -1.717836618423462
H 11.436358451843262 -0.3063623905181885 -0.03307020664215088
H 8.918335914611816 -4.190184116363525 0.052496593445539474
H 4.487211227416992 -3.9339563846588135 0.08479201048612595
