15
Generated by QM7 dataset
O 5.103772163391113 -1.4559205770492554 2.083120822906494
C 4.464099884033203 -0.006103815510869026 -0.10365147888660431
C 5.531965255737305 2.707637310028076 0.0
C 4.5777668952941895 4.1205854415893555 2.2907638549804688
C 3.20945405960083 6.249569892883301 2.2150614261627197
C 8.260729789733887 2.707637310028076 0.0
C 10.509806632995605 2.707637310028076 0.0
H 4.476515769958496 -3.158979654312134 1.8013814687728882
H 2.3989129066467285 0.04437077045440674 -0.24192273616790771
H 5.19933557510376 -1.004049301147461 -1.763057827949524
H 4.879594326019287 3.678295135498047 -1.714416265487671
H 5.048913478851318 3.303694725036621 4.123231410980225
H 2.6896660327911377 7.142087459564209 0.44336754083633423
H 2.5907199382781982 7.153520584106445 3.950472593307495
H 12.522969245910645 2.7059555053710938 0.019709844142198563
