16
Generated by QM7 dataset
C 1.87001633644104 -0.02951752208173275 0.07776223123073578
C 4.762109756469727 0.0 0.0
O 5.620480060577393 -1.2694424390792847 2.2281572818756104
C 5.692667484283447 -1.4818476438522339 -2.375593662261963
N 8.455938339233398 -1.6770374774932861 -2.6675751209259033
C 5.672995567321777 2.5722384452819824 0.0
C 6.423746109008789 4.692322254180908 0.0
H 1.0422784090042114 0.9027032852172852 -1.5772788524627686
H 1.1584020853042603 0.9300665259361267 1.77373468875885
H 1.1514478921890259 -1.972004771232605 0.16300778090953827
H 5.5742387771606445 -0.052666667848825455 3.6008732318878174
H 4.932714462280273 -0.5915032029151917 -4.086948394775391
H 4.96009635925293 -3.4184200763702393 -2.298757314682007
H 9.240402221679688 0.0767228826880455 -2.5506389141082764
H 8.871772766113281 -2.3728535175323486 -4.410696506500244
H 7.102800369262695 6.588813781738281 0.005215643905103207
