15
Generated by QM7 dataset
C 1.5924155712127686 -2.1290977001190186 1.721502661705017
C 2.064903736114502 -0.7244454026222229 -0.7095543742179871
C 1.680816888809204 2.074314594268799 -0.9782734513282776
O -0.631962239742279 3.0695388317108154 0.07330247759819031
C -2.7108688354492188 1.5311505794525146 -0.03435521945357323
C -2.6206154823303223 -0.9812591671943665 -0.30742064118385315
C -0.24003301560878754 -2.3652379512786865 -0.4569924771785736
H 2.7782187461853027 -3.74534273147583 2.1438186168670654
H 1.0391037464141846 -1.0570372343063354 3.378641366958618
H 3.604444742202759 -1.3860951662063599 -1.8863812685012817
H 3.2499887943267822 3.0823323726654053 -0.08188183605670929
H 1.6986747980117798 2.5726730823516846 -2.989849090576172
H -4.436378002166748 2.589019298553467 0.24848009645938873
H -4.36908483505249 -2.056286573410034 -0.32529744505882263
H -0.28138023614883423 -4.126954078674316 -1.4996110200881958
