14
Generated by QM7 dataset
O 1.7284380197525024 0.09100920706987381 -0.6215876340866089
C 4.342212677001953 -0.030349001288414 0.08696519583463669
C 5.9690022468566895 -1.6449687480926514 -1.5769764184951782
C 6.172337055206299 1.1898282766342163 -1.723902702331543
C 8.4243803024292 2.4383137226104736 -0.7066252827644348
C 10.76571273803711 2.256711006164551 -1.6551544666290283
H 0.9689381718635559 1.6682313680648804 -0.06132161244750023
H 4.782462120056152 -0.027892358601093292 2.0905284881591797
H 5.0709099769592285 -2.62127685546875 -3.1369264125823975
H 7.476153373718262 -2.7076563835144043 -0.6882760524749756
H 5.380711555480957 2.0938165187835693 -3.3883168697357178
H 8.145588874816895 3.636664628982544 0.9404033422470093
H 11.156697273254395 1.1032031774520874 -3.3052821159362793
H 12.332806587219238 3.259305238723755 -0.7940251231193542
