17
Generated by QM7 dataset
C 1.439102053642273 3.981482982635498 0.36484941840171814
C 4.128598213195801 3.960979461669922 1.352099061012268
O 5.733769416809082 2.98113751411438 -0.5808640122413635
C 8.315210342407227 2.9256551265716553 0.16892261803150177
C 9.509573936462402 5.504696846008301 -0.1062026098370552
N 10.335441589355469 6.723437786102295 1.8526874780654907
N 11.32934284210205 9.002447128295898 1.2633575201034546
H 0.13354694843292236 4.689903259277344 1.8009278774261475
H 0.8527956008911133 2.0786609649658203 -0.19405597448349
H 1.2932151556015015 5.17732048034668 -1.3174792528152466
H 4.249294757843018 2.7596993446350098 3.0343143939971924
H 4.701222896575928 5.887158393859863 1.8504009246826172
H 9.30967903137207 1.6499766111373901 -1.121590256690979
H 8.523061752319336 2.203401803970337 2.0964622497558594
H 9.616154670715332 6.275572776794434 -2.0439655780792236
H 12.128337860107422 9.781392097473145 2.843055248260498
H 9.951769828796387 10.252520561218262 0.7321932911872864
