15
Generated by QM7 dataset
C 2.0536975860595703 0.21941609680652618 0.4740944802761078
N 4.729209899902344 0.3759421110153198 -0.13541777431964874
C 6.066739082336426 -2.0362555980682373 -0.3263745903968811
C 6.868700981140137 -2.9269590377807617 2.180006980895996
C 7.542841911315918 -3.6297292709350586 4.2337236404418945
C 6.085995197296143 2.5609002113342285 0.1803932636976242
N 5.285431861877441 4.794140815734863 0.6960995197296143
H 1.0067137479782104 1.777287483215332 -0.3972204327583313
H 1.771051287651062 0.29135796427726746 2.522104024887085
H 1.2093302011489868 -1.5314151048660278 -0.23759526014328003
H 7.715959548950195 -1.8305587768554688 -1.5641074180603027
H 4.859601020812988 -3.4601452350616455 -1.22660231590271
H 8.149576187133789 -4.224388122558594 6.056912422180176
H 8.141261100769043 2.293541669845581 -0.06869154423475266
H 3.3673596382141113 4.790626049041748 0.8715605735778809
