11
Generated by QM7 dataset
C 1.889726161956787 0.0 0.0
C 4.138802528381348 0.0 0.0
C 6.86756706237793 0.0 0.0
O 7.7970099449157715 -2.268918514251709 -1.2389800548553467
C 9.184087753295898 -1.2485231161117554 -3.1815996170043945
C 9.183313369750977 1.240661859512329 -3.1852657794952393
O 7.7977471351623535 2.2668588161468506 -1.2431374788284302
H -0.12383375316858292 -1.8897260815720074e-05 -0.012339911423623562
H 7.609209060668945 0.0014739864272996783 1.9352307319641113
H 10.065739631652832 -2.557385206222534 -4.457939624786377
H 10.064927101135254 2.5484657287597656 -4.462588310241699
