17
Generated by QM7 dataset
C 2.1282095909118652 0.39495277404785156 -0.02664513885974884
C 4.981374740600586 -0.07349144667387009 0.013058007694780827
C 5.674091815948486 -2.3921475410461426 -1.554413080215454
C 6.560014247894287 -1.1239523887634277 -3.914794445037842
N 6.972805976867676 1.273543119430542 -3.7269368171691895
N 6.489943027496338 1.8614369630813599 -1.280535101890564
C 5.919227123260498 4.472055912017822 -0.6521633863449097
H 1.6250511407852173 2.0606329441070557 1.0921294689178467
H 1.122913122177124 -1.2230496406555176 0.7837828397750854
H 1.4213764667510986 0.6753314137458801 -1.9523327350616455
H 5.606174945831299 -0.313656747341156 1.9727418422698975
H 4.093789100646973 -3.6573004722595215 -1.960817575454712
H 7.253902912139893 -3.461827039718628 -0.7563439607620239
H 6.872990608215332 -2.214097738265991 -5.6544952392578125
H 5.802952289581299 4.736863136291504 1.397282361984253
H 4.144414901733398 5.0985565185546875 -1.511421799659729
H 7.426567077636719 5.71413516998291 -1.3375670909881592
