14
Generated by QM7 dataset
O 1.6104624271392822 0.5920701026916504 1.1207399368286133
N 4.244230270385742 0.4300449788570404 1.315910816192627
C 5.248544216156006 2.0283186435699463 -0.24305658042430878
C 8.067883491516113 2.2729814052581787 -0.5082418322563171
O 8.6423978805542 4.874775409698486 -0.13305561244487762
C 11.106714248657227 5.586483955383301 -0.4142090678215027
C 13.114227294921875 4.178940296173096 -1.0243827104568481
H 1.0424296855926514 -0.6100791692733765 2.3981192111968994
H 4.079030513763428 3.235135555267334 -1.4818286895751953
H 8.563804626464844 1.6889238357543945 -2.430924892425537
H 9.015731811523438 1.089238166809082 0.9000954627990723
H 11.270118713378906 7.6005539894104 -0.0581657700240612
H 13.010934829711914 2.1670055389404297 -1.3872101306915283
H 14.965629577636719 5.052844047546387 -1.1739168167114258
