19
Generated by QM7 dataset
C 1.9060534238815308 -0.15747088193893433 -0.02968759834766388
C 4.722501277923584 -0.10805454105138779 -0.07056237012147903
C 6.150774955749512 -1.3041378259658813 -2.2243399620056152
C 6.089264392852783 1.536763072013855 -1.9596837759017944
C 8.402591705322266 2.9735028743743896 -1.163050889968872
C 9.884268760681152 4.023812770843506 -3.3461570739746094
C 10.298100471496582 6.490094184875488 -3.7296202182769775
H 1.1863889694213867 1.387229084968567 1.1425095796585083
H 1.2359564304351807 -1.9422416687011719 0.7715751528739929
H 1.0961734056472778 0.04265112057328224 -1.923514485359192
H 5.509420871734619 -0.2936445474624634 1.8125497102737427
H 5.088597774505615 -2.1431384086608887 -3.762709379196167
H 7.88645076751709 -2.2987005710601807 -1.7797062397003174
H 4.94494104385376 2.603815793991089 -3.285799026489258
H 9.663643836975098 1.7563871145248413 -0.05533118173480034
H 7.809142112731934 4.504048824310303 0.102838896214962
H 10.654767036437988 2.6593549251556396 -4.677450180053711
H 9.565340042114258 7.918160438537598 -2.4507291316986084
H 11.383426666259766 7.135133266448975 -5.346753120422363
