15
Generated by QM7 dataset
C 1.7994539737701416 -0.14310896396636963 0.16157157719135284
C 4.575007915496826 0.10053343325853348 -0.5339421033859253
O 5.417032241821289 -2.2055561542510986 -1.7363370656967163
C 6.399425506591797 -1.2658519744873047 -3.9506993293762207
C 6.1158528327941895 1.2003161907196045 -4.20101261138916
C 6.9307026863098145 2.8670167922973633 -6.298835277557373
O 4.906749725341797 2.285661458969116 -2.1457650661468506
H 1.133854627609253 1.5569453239440918 1.1337600946426392
H 1.478880763053894 -1.7937091588974 1.3650436401367188
H 0.6397857069969177 -0.37654682993888855 -1.5378590822219849
H 5.714966297149658 0.38259395956993103 1.1755797863006592
H 7.241033554077148 -2.6187069416046143 -5.207197189331055
H 7.702731609344482 4.638521671295166 -5.560783863067627
H 5.326211929321289 3.3170552253723145 -7.523169994354248
H 8.398377418518066 1.9702662229537964 -7.448185443878174
