15
Generated by QM7 dataset
C 2.0605952739715576 -0.10429398715496063 -0.08573687821626663
C 4.899870872497559 0.04030785709619522 -0.06105704978108406
C 6.219655513763428 -2.4799065589904785 -0.13895156979560852
O 7.517538547515869 -2.8822669982910156 2.169726848602295
C 6.073730945587158 2.2981715202331543 0.018443727865815163
C 8.851420402526855 2.6665737628936768 0.1146685853600502
O 10.379226684570312 0.9463370442390442 0.3659643530845642
H 1.1785087585449219 1.7672151327133179 -0.021183829754590988
H 1.3820322751998901 -1.1739356517791748 1.5508226156234741
H 1.4052191972732544 -1.0459067821502686 -1.8083356618881226
H 7.542237281799316 -2.6071228981018066 -1.727512001991272
H 4.859770774841309 -4.02390718460083 -0.3652462661266327
H 9.041187286376953 -1.8339980840682983 2.042661666870117
H 4.996246814727783 4.0448455810546875 0.04907618835568428
H 9.458797454833984 4.656096458435059 -0.027193158864974976
