16
Generated by QM7 dataset
C 3.2182791233062744 -0.2183389514684677 -0.24349121749401093
C 1.6327611207962036 -2.249284267425537 1.0662212371826172
C -0.797634482383728 -2.8613100051879883 -0.33365005254745483
C -2.798797845840454 -0.8248276710510254 -0.4805573523044586
N -2.6244516372680664 1.588069200515747 -0.04529673606157303
O -0.2714780569076538 2.4079079627990723 0.86509770154953
C 1.6745240688323975 2.0950827598571777 -0.9728876948356628
H 4.164257049560547 -0.9815804362297058 -1.9208499193191528
H 4.721102714538574 0.35128119587898254 1.0672417879104614
H 2.7755353450775146 -3.969029664993286 1.2389988899230957
H 1.188429832458496 -1.64935302734375 3.000412702560425
H -1.700243353843689 -4.486096382141113 0.5818655490875244
H -0.38157349824905396 -3.444479465484619 -2.277308940887451
H -4.654849052429199 -1.4788997173309326 -1.1723294258117676
H 2.8667900562286377 3.785858392715454 -0.9635902643203735
H 0.8911192417144775 1.911080002784729 -2.883967638015747
