17
Generated by QM7 dataset
C 1.7773630619049072 -1.1649972200393677 0.4834675192832947
N 4.226164817810059 -0.544808030128479 -0.65239018201828
C 5.07837438583374 -2.655046224594116 -2.2293100357055664
C 4.082866668701172 1.771750569343567 -2.179137706756592
C 3.6577160358428955 4.078784942626953 -0.5812986493110657
C 1.7419495582580566 5.707275390625 -0.8912326097488403
H 1.1803040504455566 0.29390910267829895 1.8250596523284912
H 1.9083588123321533 -2.922178030014038 1.5726490020751953
H 0.28977060317993164 -1.3963186740875244 -0.9396096467971802
H 5.2540435791015625 -4.38329553604126 -1.102447271347046
H 6.9567999839782715 -2.2699201107025146 -3.0115432739257812
H 3.781247615814209 -3.0309505462646484 -3.800881862640381
H 2.6362435817718506 1.6042263507843018 -3.6543335914611816
H 5.894150257110596 2.0624282360076904 -3.148926258087158
H 5.028013229370117 4.413965702056885 0.9138904809951782
H 0.33087214827537537 5.444130897521973 -2.355184555053711
H 1.5465896129608154 7.338146686553955 0.3372405171394348
