9
Generated by QM7 dataset
C 1.8570338487625122 -0.0033826096914708614 0.008598254062235355
O 4.541578769683838 0.044654227793216705 0.0
C 5.482983589172363 2.559180498123169 -0.008598254062235355
H 1.2406052350997925 -1.9758031368255615 0.005895945709198713
H 1.110384225845337 0.9238114953041077 -1.6822341680526733
H 1.121779203414917 0.915988028049469 1.709143877029419
H 7.548019886016846 2.4818530082702637 -0.005895945709198713
H 4.8582024574279785 3.5725083351135254 1.6822341680526733
H 4.861793041229248 3.559148073196411 -1.709143877029419
