17
Generated by QM7 dataset
C 5.783318042755127 -1.6880167722702026 1.7929344177246094
C 5.007736682891846 -0.004667623434215784 -0.41539961099624634
C 5.794448375701904 2.7716236114501953 -0.10274440795183182
C 4.808767318725586 4.358899116516113 -2.301762104034424
O 4.718476295471191 3.760876178741455 2.160240411758423
C 8.675241470336914 2.9916255474090576 -0.04535342752933502
O 9.84118366241455 3.6574137210845947 1.8516860008239746
H 5.11146354675293 -3.6191844940185547 1.4775768518447876
H 4.973097801208496 -1.0201308727264404 3.574228048324585
H 7.83947229385376 -1.7633033990859985 1.9973270893096924
H 2.943418502807617 -0.11527329683303833 -0.5835663080215454
H 5.809566020965576 -0.7854079604148865 -2.1604483127593994
H 5.536576271057129 3.6891422271728516 -4.119962215423584
H 5.369808197021484 6.341543197631836 -2.0840656757354736
H 2.7392146587371826 4.333066463470459 -2.3674867153167725
H 6.092987060546875 3.856534242630005 3.396045684814453
H 9.672279357910156 2.461916208267212 -1.798641324043274
