13
Generated by QM7 dataset
C 1.7603744268417358 -0.1561102718114853 0.19925272464752197
C 4.279719352722168 -0.0970185399055481 -0.0514572411775589
C 5.763986110687256 2.341918706893921 -0.19165602326393127
O 8.40096664428711 2.200869560241699 0.435147225856781
C 9.469682693481445 -0.13044779002666473 0.18080899119377136
C 8.167302131652832 -2.2600746154785156 -0.16211961209774017
O 5.587561130523682 -2.361609697341919 -0.26012080907821655
H 0.6502736806869507 1.5620476007461548 0.32352110743522644
H 0.7594620585441589 -1.9445282220840454 0.2588168978691101
H 4.937060832977295 3.7433395385742188 1.0912412405014038
H 5.63017463684082 3.106860876083374 -2.1128082275390625
H 11.502630233764648 -0.056124866008758545 0.3526228964328766
H 9.004753112792969 -4.112516403198242 -0.32006290555000305
