16
Generated by QM7 dataset
C 1.7812936305999756 -0.06895610690116882 0.013719411566853523
C 4.601275444030762 -0.004686520900577307 0.01787680946290493
C 5.931888103485107 2.150489330291748 0.0
C 8.58884334564209 2.150489330291748 0.0
C 10.837919235229492 2.150489330291748 0.0
C 13.566683769226074 2.150489330291748 0.0
N 14.520655632019043 4.7310614585876465 0.02031455561518669
H 1.1224027872085571 -2.0273358821868896 -0.07634493708610535
H 1.0197340250015259 0.928082287311554 -1.6296998262405396
H 1.0234946012496948 0.7749766707420349 1.742081880569458
H 5.5753912925720215 -1.8151953220367432 0.03701973333954811
H 4.973778247833252 3.9657793045043945 -0.012415500357747078
H 14.28850269317627 1.1680018901824951 -1.6723698377609253
H 14.29018497467041 1.1511833667755127 1.6606346368789673
H 13.854621887207031 5.65062141418457 -1.534136414527893
H 16.435401916503906 4.6935882568359375 -0.14775767922401428
