20
Generated by QM7 dataset
C -0.11139935255050659 -0.4969223737716675 1.6290762424468994
C 2.7278764247894287 -0.9367561340332031 1.6011838912963867
C 4.171060085296631 1.5344387292861938 1.2030375003814697
N 6.889204502105713 1.0289937257766724 1.1759576797485352
C 8.324073791503906 3.350975751876831 0.7783970832824707
C 11.085549354553223 2.7361912727355957 0.7933259010314941
C 12.676358222961426 3.2045786380767822 -1.1195493936538696
H -1.1109322309494019 -2.2831482887268066 1.9317158460617065
H -0.7567408084869385 0.30160027742385864 -0.1686958521604538
H -0.6485162377357483 0.8038706183433533 3.1467907428741455
H 3.1850578784942627 -2.281409740447998 0.0935981348156929
H 3.2940194606781006 -1.8073152303695679 3.393305540084839
H 3.7114410400390625 2.853240728378296 2.7350385189056396
H 3.5835254192352295 2.4004247188568115 -0.5869867205619812
H 7.29610013961792 -0.19628585875034332 -0.25496184825897217
H 7.949775695800781 4.695742607116699 2.307922601699829
H 7.78062629699707 4.247102737426758 -1.0080366134643555
H 11.815040588378906 1.8623818159103394 2.506627321243286
H 12.04192066192627 4.077953338623047 -2.863823175430298
H 14.662631034851074 2.710509777069092 -0.9723396897315979
