17
Generated by QM7 dataset
C 1.6413216590881348 -0.03700083866715431 0.07681737095117569
C 4.514007568359375 -0.05980983376502991 0.10185623914003372
C 5.594042778015137 2.60878586769104 -0.061605073511600494
C 8.478785514831543 2.585277557373047 -0.07798899710178375
O 9.426407814025879 5.118757724761963 -0.29475948214530945
C 9.751932144165039 6.372137546539307 1.9132531881332397
O 9.309357643127441 5.581362724304199 4.033318042755127
H 0.9084480404853821 -1.9672993421554565 0.20257864892482758
H 0.9219595789909363 0.8097476363182068 -1.6685336828231812
H 0.8932546377182007 1.0392926931381226 1.6775099039077759
H 5.197427272796631 -1.1957430839538574 -1.4892175197601318
H 5.170895576477051 -0.9777253866195679 1.8384389877319336
H 4.912172794342041 3.7503316402435303 1.5290151834487915
H 4.910510063171387 3.55948805809021 -1.773470163345337
H 9.167779922485352 1.5448322296142578 -1.729628562927246
H 9.249359130859375 1.6400177478790283 1.5964406728744507
H 10.492042541503906 8.273731231689453 1.50703763961792
