15
Generated by QM7 dataset
N 1.963104248046875 0.061434995383024216 0.15044109523296356
C 4.703585147857666 0.07258438318967819 -0.12462744116783142
C 5.8589067459106445 2.002523899078369 1.726415991783142
C 7.859673500061035 -0.02876163087785244 2.3655214309692383
C 5.888953685760498 -2.0398647785186768 1.5552445650100708
O 6.841432094573975 -4.235518932342529 0.253185510635376
H 1.1358954906463623 -1.534892201423645 -0.5449592471122742
H 1.0866491794586182 1.5388039350509644 -0.7170754671096802
H 5.409718990325928 0.15722522139549255 -2.06649112701416
H 4.679736614227295 2.517587661743164 3.352903366088867
H 6.598659038543701 3.7316043376922607 0.8692362308502197
H 9.545724868774414 0.04113933816552162 1.1654696464538574
H 8.44526195526123 -0.09664059430360794 4.34489631652832
H 4.699314117431641 -2.636054515838623 3.14920973777771
H 7.921902179718018 -3.582127094268799 -1.081282377243042
