17
Generated by QM7 dataset
C 5.218573093414307 -0.021637363359332085 -3.147697925567627
C 4.604185581207275 0.747367799282074 -0.4434998333454132
C 4.528029441833496 3.5959410667419434 -0.11355364322662354
C 2.2766852378845215 4.772919178009033 -0.11610477417707443
N 6.757906436920166 4.925174236297607 0.2395416796207428
C 9.196276664733887 4.122721195220947 0.34188926219940186
N 11.14709758758545 5.5243120193481445 0.733478307723999
H 5.297809600830078 -2.083782196044922 -3.2993862628936768
H 7.042026519775391 0.7332326173782349 -3.7666966915130615
H 3.7659974098205566 0.654733419418335 -4.4589409828186035
H 5.966696739196777 -0.09493984282016754 0.8691417574882507
H 2.773796796798706 -0.08222198486328125 0.07111039757728577
H 0.526534378528595 3.7337019443511963 -0.38064754009246826
H 2.106156349182129 6.801331996917725 0.1289738118648529
H 6.500771522521973 6.805565357208252 0.48694461584091187
H 9.466696739196777 2.080493927001953 0.05508551746606827
H 10.614156723022461 7.363941669464111 0.9688625931739807
