10
Generated by QM7 dataset
O 1.8438057899475098 -0.05792010575532913 0.0
C 4.152673244476318 -0.04775337874889374 -0.0
C 5.538012504577637 2.3009872436523438 0.0
C 6.662550926208496 4.248746871948242 0.0
C 8.026932716369629 6.61192512512207 0.0
C 6.886993408203125 9.09118938446045 0.0
N 5.97835636138916 11.067388534545898 0.0
H 5.306407451629639 -1.7806510925292969 -0.0
H 9.308658599853516 6.553986072540283 -1.6345374584197998
H 9.308658599853516 6.553986072540283 1.6345374584197998
