9
Generated by QM7 dataset
O 2.4477055072784424 -0.644075334072113 1.3806527853012085
C 4.241981506347656 -0.10816792398691177 0.007993541657924652
C 5.67558479309082 2.3420886993408203 0.1830388754606247
C 8.409470558166504 1.9178452491760254 -0.025454610586166382
C 10.649910926818848 1.587294340133667 -0.19515201449394226
H 4.776906490325928 -1.3664042949676514 -1.5676034688949585
H 5.217854976654053 3.259720802307129 1.97941255569458
H 5.023062229156494 3.560640811920166 -1.3561241626739502
H 12.638809204101562 1.3028905391693115 -0.3370893597602844
