17
Generated by QM7 dataset
C 7.395443439483643 -2.5313448905944824 -1.2441579103469849
N 8.823811531066895 -0.46744266152381897 -0.09376820921897888
N 7.877077579498291 1.873436689376831 -0.5082229375839233
C 9.567721366882324 3.630995273590088 -0.24305658042430878
C 8.877423286437988 6.382040023803711 -0.6721566915512085
C 9.43736743927002 7.112759113311768 -3.389148235321045
O 6.284435272216797 6.821873664855957 -0.1467561274766922
H 8.313340187072754 -4.334824085235596 -0.8219363689422607
H 7.332515239715576 -2.3140640258789062 -3.2993106842041016
H 5.460874080657959 -2.593573570251465 -0.5148558616638184
H 8.918732643127441 -0.8167963027954102 1.8080143928527832
H 11.567845344543457 3.220339059829712 0.19796770811080933
H 10.004304885864258 7.533317565917969 0.622211217880249
H 8.22866153717041 6.063431739807129 -4.705380439758301
H 11.410808563232422 6.734624862670898 -3.885314702987671
H 9.047743797302246 9.123371124267578 -3.6936585903167725
H 5.400327205657959 5.294426918029785 -0.69951993227005
