15
Generated by QM7 dataset
C 2.0336477756500244 0.12332352995872498 0.014777658507227898
C 4.834392070770264 -0.058146871626377106 -0.08225978165864944
C 6.243447303771973 -2.1423258781433105 -0.14637818932533264
C 8.940011024475098 -1.4104348421096802 -0.13842244446277618
O 9.963600158691406 -1.924308180809021 2.289365530014038
C 8.738887786865234 1.4293699264526367 -0.6565475463867188
O 6.189061164855957 2.1990742683410645 -0.024944385513663292
H 1.1478952169418335 -1.7449164390563965 -0.0429912693798542
H 1.3300648927688599 1.2150182723999023 -1.59489107131958
H 1.434547781944275 1.064785122871399 1.7556312084197998
H 5.561766147613525 -4.061493873596191 -0.13696734607219696
H 10.074886322021484 -2.3751590251922607 -1.5688128471374512
H 8.857808113098145 -1.1093826293945312 3.5154953002929688
H 9.029678344726562 1.8475852012634277 -2.6654210090637207
H 10.065173149108887 2.5454421043395996 0.4714110791683197
