17
Generated by QM7 dataset
C 5.480451583862305 -0.3052096664905548 1.2859208583831787
C 7.926682949066162 0.3585944175720215 -0.0565217100083828
O 8.336507797241211 3.006932258605957 0.22973400354385376
C 10.447332382202148 4.053443431854248 -0.8744707703590393
C 12.382165908813477 2.7694880962371826 -1.9004409313201904
C 10.46139144897461 6.799310207366943 -0.8702755570411682
C 8.616130828857422 8.274619102478027 0.034865446388721466
H 5.010098457336426 -2.2985305786132812 1.0188080072402954
H 3.9162118434906006 0.8558569550514221 0.5832073092460632
H 5.644196033477783 0.07262217253446579 3.3155245780944824
H 7.757439136505127 -0.11149384081363678 -2.0646581649780273
H 9.475200653076172 -0.7158093452453613 0.7953857183456421
H 12.467354774475098 0.7246721982955933 -1.9366858005523682
H 13.983141899108887 3.743056058883667 -2.7368526458740234
H 12.108647346496582 7.717660427093506 -1.6906623840332031
H 6.912712574005127 7.493198871612549 0.873695969581604
H 8.770578384399414 10.318471908569336 -0.05109819397330284
