15
Generated by QM7 dataset
C 1.9671671390533447 -0.22895921766757965 0.7378246784210205
C 4.669683456420898 -0.06449635326862335 -0.15737639367580414
C 5.798152446746826 -2.149374485015869 -1.0813391208648682
C 5.9527506828308105 2.395738124847412 -0.02849707007408142
C 5.179777145385742 4.296576023101807 1.4678258895874023
C 8.096607208251953 2.8711555004119873 -1.6109914779663086
C 9.884552955627441 3.2909770011901855 -2.945213794708252
H 0.7975777983665466 1.2034531831741333 -0.19333788752555847
H 1.8503820896148682 0.03477096185088158 2.7869114875793457
H 1.119341492652893 -2.0693256855010986 0.3095560371875763
H 4.812981128692627 -3.9464662075042725 -1.1765434741973877
H 7.737502574920654 -2.1510753631591797 -1.7499431371688843
H 3.577346086502075 4.134418487548828 2.731032133102417
H 6.165893077850342 6.096804618835449 1.4888774156570435
H 11.46451473236084 3.6637821197509766 -4.134456157684326
