14
Generated by QM7 dataset
C 6.03795862197876 -2.094723701477051 0.9503810405731201
O 4.567222595214844 0.11058676987886429 0.5217344760894775
C 5.77687406539917 2.317314386367798 0.30553093552589417
C 4.752869129180908 4.68400764465332 -0.09252098947763443
C 6.7532196044921875 6.456608295440674 -0.19282765686511993
C 8.96387767791748 5.132345199584961 0.14564119279384613
N 8.355877876281738 2.630309820175171 0.44501161575317383
H 4.750544548034668 -3.706300973892212 1.0832854509353638
H 7.076816558837891 -1.955885410308838 2.7346415519714355
H 7.333327770233154 -2.438030242919922 -0.6263119578361511
H 2.7561087608337402 5.074897289276123 -0.2883722186088562
H 6.593235492706299 8.473739624023438 -0.4806329309940338
H 10.91220474243164 5.748924732208252 0.19929051399230957
H 9.625603675842285 1.234917163848877 0.7249367237091064
