13
Generated by QM7 dataset
O 1.6821208000183105 0.22047434747219086 0.017253199592232704
C 4.005520343780518 0.11602918803691864 0.01797129586338997
C 5.342596054077148 -2.413822889328003 0.09735868871212006
C 8.151541709899902 -2.3206026554107666 0.043803852051496506
C 9.398666381835938 -0.13192178308963776 -0.03945748135447502
C 8.099706649780273 2.3596253395080566 -0.08365817368030548
O 5.384982585906982 2.256767749786377 -0.040270064026117325
H 4.690829277038574 -3.5112245082855225 -1.5326623916625977
H 4.748220443725586 -3.376600503921509 1.8310879468917847
H 9.17611312866211 -4.099609851837158 0.0750221312046051
H 11.452231407165527 -0.12345580756664276 -0.0767039805650711
H 8.696179389953613 3.4820282459259033 1.548838496208191
H 8.644646644592285 3.39593243598938 -1.7892682552337646
