13
Generated by QM7 dataset
O 1.647860050201416 -0.4907240867614746 -0.41541850566864014
C 4.252771854400635 0.10665614157915115 0.17493194341659546
C 6.429793357849121 -1.4247022867202759 -1.2316290140151978
O 8.0459623336792 0.8473343253135681 -0.45086976885795593
C 5.69370698928833 2.148240566253662 -1.5095888376235962
C 5.478448390960693 1.322373628616333 -4.1856489181518555
C 5.988636493682861 -1.152411699295044 -3.9945030212402344
H 0.6888996362686157 0.942406415939331 0.2175641655921936
H 4.511097431182861 0.31242841482162476 2.2214107513427734
H 7.1043877601623535 -3.2084903717041016 -0.4564255475997925
H 5.579510688781738 4.146437168121338 -1.0270472764968872
H 5.029430389404297 2.4296398162841797 -5.832299709320068
H 6.0579328536987305 -2.5817816257476807 -5.436817646026611
