12
Generated by QM7 dataset
O 2.7485878467559814 -0.5683917999267578 -1.7058935165405273
C 4.847317695617676 -0.1020641103386879 -0.0817684531211853
C 5.594024181365967 2.6010568141937256 -0.04671403020620346
C 4.2920403480529785 4.689241886138916 -0.8896452784538269
O 5.73380708694458 6.774630546569824 -0.4502461552619934
C 7.85632848739624 5.828652381896973 0.6482705473899841
N 7.884428977966309 3.363447904586792 0.9475653767585754
H 2.484309673309326 -2.3856470584869385 -1.692552089691162
H 6.434952259063721 -1.2567434310913086 -0.7341964244842529
H 4.332480430603027 -0.7056237459182739 1.8278753757476807
H 2.4776954650878906 4.987478733062744 -1.7765504121780396
H 9.297528266906738 7.180184364318848 1.164940595626831
