17
Generated by QM7 dataset
C 3.6285388469696045 -1.0109657049179077 2.0320792198181152
C 5.205345153808594 -0.44244158267974854 -0.2959122061729431
C 6.785760879516602 1.9149917364120483 0.13112810254096985
N 5.843997001647949 4.129297256469727 -0.4072359800338745
N 9.1834077835083 1.7612625360488892 1.1653374433517456
C 10.808496475219727 -0.4351094365119934 1.050083041191101
O 10.53707504272461 4.030256748199463 0.8770785927772522
H 2.4814560413360596 -2.7051429748535156 1.7310458421707153
H 2.3556571006774902 0.562004566192627 2.4677743911743164
H 4.829440593719482 -1.3244524002075195 3.6878950595855713
H 3.9646077156066895 -0.13953737914562225 -1.9257632493972778
H 6.416943073272705 -2.0532820224761963 -0.7503724694252014
H 4.046565055847168 3.934239625930786 -1.1097416877746582
H 9.902939796447754 -2.0701382160186768 1.9341347217559814
H 12.575654983520508 -0.08501877635717392 2.068758726119995
H 11.269891738891602 -0.8992450833320618 -0.9123597741127014
H 9.171143531799316 5.247882843017578 0.524550199508667
