17
Generated by QM7 dataset
C 1.8917292356491089 -0.10261213034391403 0.005026671569794416
C 4.762109756469727 0.0 0.0
C 5.672995567321777 2.5722384452819824 0.0
C 6.423746109008789 4.692322254180908 0.0
C 7.33463191986084 7.264560699462891 0.0
C 9.464353561401367 7.613555431365967 -1.9066392183303833
O 5.304707050323486 8.910852432250977 -0.6417887806892395
H 1.2430429458618164 -2.0669257640838623 0.004138500429689884
H 1.1058865785598755 0.8342763185501099 -1.665661334991455
H 1.1119526624679565 0.8306668996810913 1.6806089878082275
H 5.4724955558776855 -1.0067516565322876 -1.6642818450927734
H 5.4785051345825195 -1.0091326236724854 1.6602377891540527
H 7.9987382888793945 7.792285919189453 1.8876473903656006
H 8.810904502868652 7.230526924133301 -3.8325157165527344
H 11.061342239379883 6.3622541427612305 -1.4990819692611694
H 10.141461372375488 9.569724082946777 -1.8870805501937866
H 5.995269775390625 10.604803085327148 -0.7667941451072693
