18
Generated by QM7 dataset
C 3.5022671222686768 -0.020711397752165794 0.9996462464332581
C 5.228834629058838 0.17924052476882935 -1.3076715469360352
C 4.364095687866211 -1.6574032306671143 -3.3844239711761475
O 6.207353591918945 -1.8250786066055298 -5.340932846069336
C 5.23427677154541 2.869171142578125 -2.2819955348968506
C 7.359576225280762 4.635441303253174 -1.5952123403549194
N 7.138950824737549 3.60599422454834 -4.148402214050293
H 4.107527732849121 1.2893412113189697 2.4829301834106445
H 3.53450608253479 -1.9349472522735596 1.782408595085144
H 1.5444353818893433 0.44470924139022827 0.5147424936294556
H 7.15391731262207 -0.344119131565094 -0.73517906665802
H 2.5749597549438477 -1.0540891885757446 -4.23192834854126
H 4.109190464019775 -3.562152624130249 -2.620577812194824
H 6.9235029220581055 -0.1281990259885788 -5.541565418243408
H 3.3567771911621094 3.6364188194274902 -2.575148582458496
H 8.924118041992188 3.9272854328155518 -0.4812943637371063
H 6.947408199310303 6.626513481140137 -1.3659507036209106
H 6.452375411987305 4.955598831176758 -5.3528947830200195
