18
Generated by QM7 dataset
C 6.992931365966797 -1.1466480493545532 2.4049031734466553
O 6.208034038543701 1.2701416015625 3.2795252799987793
C 5.981040000915527 3.100001335144043 1.2830673456192017
C 4.393707752227783 5.343276023864746 2.315462589263916
N 5.476407527923584 6.535882472991943 4.58475923538208
C 8.571061134338379 3.939058542251587 0.44563522934913635
C 9.460082054138184 3.7342689037323 -1.9185633659362793
H 6.92155647277832 -2.4614627361297607 3.997772216796875
H 8.938272476196289 -1.0847028493881226 1.7088226079940796
H 5.72539758682251 -1.8430688381195068 0.9267972707748413
H 4.922377586364746 2.2588086128234863 -0.29018634557724
H 2.5184946060180664 4.626333236694336 2.829090118408203
H 4.143337726593018 6.783720016479492 0.85003662109375
H 5.953600883483887 5.108818054199219 5.799097061157227
H 4.116825103759766 7.571547031402588 5.465994834899902
H 9.763799667358398 4.771463871002197 1.8989291191101074
H 8.33917236328125 2.9238409996032715 -3.4317047595977783
H 11.349109649658203 4.3881330490112305 -2.37907075881958
