19
Generated by QM7 dataset
N 1.8638179302215576 -0.019010644406080246 0.232644185423851
C 4.630830764770508 -0.0051400549709796906 0.029744289815425873
C 5.546667575836182 -2.559274911880493 -0.9828465580940247
C 4.9282546043396 -2.865297317504883 -3.7887685298919678
C 5.899233818054199 -0.6234017610549927 -5.331503391265869
N 4.958773612976074 1.7936335802078247 -4.379988193511963
C 5.6018476486206055 2.147825002670288 -1.7075376510620117
H 1.225449562072754 1.7445762157440186 0.653127133846283
H 1.311432123184204 -1.1933809518814087 1.6488994359970093
H 5.4028215408325195 0.2920004725456238 1.9298827648162842
H 4.723672866821289 -4.123495578765869 0.09824686497449875
H 7.601914882659912 -2.687096118927002 -0.7291886210441589
H 5.781522750854492 -4.614956855773926 -4.497019290924072
H 2.879772663116455 -3.054269790649414 -4.044543266296387
H 7.972546577453613 -0.6166365146636963 -5.336548805236816
H 5.295768737792969 -0.846824049949646 -7.299558639526367
H 5.698034286499023 3.23207426071167 -5.420320510864258
H 7.662140369415283 2.3036327362060547 -1.5129903554916382
H 4.816477298736572 3.956916332244873 -1.0702085494995117
