15
Generated by QM7 dataset
C 3.247929096221924 -1.748544692993164 2.2626068592071533
N 5.164130210876465 -0.6532594561576843 0.6472312211990356
C 6.114794731140137 1.746598243713379 0.9449764490127563
C 8.177657127380371 2.700739860534668 -0.16346131265163422
C 8.943185806274414 5.339534759521484 0.3506008982658386
N 11.000435829162598 6.101396560668945 -0.9899519085884094
O 7.864832401275635 6.746492385864258 1.8294249773025513
H 2.532724380493164 -3.4922139644622803 1.4128726720809937
H 1.6536426544189453 -0.4536287486553192 2.509253978729248
H 4.039346218109131 -2.202645778656006 4.118110179901123
H 6.329996585845947 -1.9078675508499146 -0.22311995923519135
H 4.991900444030762 2.9178504943847656 2.2172534465789795
H 9.30671215057373 1.5839495658874512 -1.4463207721710205
H 11.913098335266113 5.009097099304199 -2.257523536682129
H 11.592185020446777 7.900056838989258 -0.7315129637718201
