18
Generated by QM7 dataset
C 1.9650317430496216 0.957732081413269 1.7973374128341675
O 4.645135879516602 1.0176174640655518 1.6462916135787964
C 5.492337703704834 2.852919578552246 -0.13178950548171997
C 8.31496524810791 2.762099266052246 -0.1535780429840088
C 9.818034172058105 4.75876522064209 0.293455570936203
C 12.636768341064453 4.658288478851318 0.2985389232635498
N 13.608597755432129 6.434630870819092 -1.5614995956420898
H 1.4242488145828247 -0.4544791281223297 3.2046921253204346
H 1.1508243083953857 0.4189522862434387 -0.025511302053928375
H 1.2286432981491089 2.7963788509368896 2.3913161754608154
H 4.794783115386963 4.727149963378906 0.40587538480758667
H 4.77686882019043 2.3795621395111084 -2.0161867141723633
H 9.14287281036377 0.9251154065132141 -0.5559007525444031
H 8.982510566711426 6.588643550872803 0.7201935052871704
H 13.33781909942627 2.7564868927001953 -0.12041334807872772
H 13.330714225769043 5.182687282562256 2.1756417751312256
H 13.061408996582031 5.849363803863525 -3.313049077987671
H 15.53133773803711 6.351218223571777 -1.5535815954208374
