16
Generated by QM7 dataset
C 1.5113840103149414 0.5689398646354675 1.582551121711731
C 3.3461191654205322 0.14537663757801056 -0.10752541571855545
C 5.581948757171631 1.853197693824768 -0.47432124614715576
C 8.107000350952148 0.53753262758255 0.06468532234430313
C 8.415441513061523 -0.421616792678833 2.7767446041107178
C 8.418502807617188 1.644798755645752 4.627617835998535
N 8.426817893981934 3.2837581634521484 6.087356090545654
H -0.07917952537536621 -0.71645188331604 1.7546485662460327
H 1.5384260416030884 2.204667806625366 2.823421001434326
H 3.2175800800323486 -1.5080581903457642 -1.324244499206543
H 5.407961368560791 3.5600929260253906 0.6875579357147217
H 5.579095363616943 2.4954023361206055 -2.445230007171631
H 9.641552925109863 1.8617770671844482 -0.3769247829914093
H 8.326322555541992 -1.0679409503936768 -1.2303061485290527
H 10.214763641357422 -1.440972924232483 2.911916732788086
H 6.934709072113037 -1.7906289100646973 3.242732286453247
