17
Generated by QM7 dataset
C 1.7334269285202026 0.1079600527882576 0.0057258703745901585
C 4.618660926818848 0.09958856552839279 0.06400502473115921
C 5.715854644775391 0.19621026515960693 -2.5991859436035156
O 5.448930740356445 -2.216403007507324 1.2513010501861572
C 6.395456790924072 -1.6295108795166016 3.7318689823150635
C 6.64284086227417 1.1572304964065552 3.7938897609710693
C 5.638526916503906 2.150149345397949 1.7131311893463135
H 0.9427087903022766 -0.08205191045999527 1.91278076171875
H 1.0196017026901245 -1.507018804550171 -1.0784478187561035
H 0.9877409338951111 1.8458466529846191 -0.8372998833656311
H 7.786654472351074 0.11071905493736267 -2.560767889022827
H 5.155777454376221 1.9226452112197876 -3.595506429672241
H 5.0875773429870605 -1.4342832565307617 -3.712442636489868
H 8.209858894348145 -2.5801374912261963 3.9907047748565674
H 5.046192169189453 -2.308206081390381 5.145081520080566
H 7.486698150634766 2.2063119411468506 5.325815200805664
H 5.533382892608643 4.143375873565674 1.279004454612732
