13
Generated by QM7 dataset
C 5.191568851470947 -2.2603580951690674 0.6301291584968567
C 4.323258876800537 0.0902533233165741 0.2570216655731201
C 5.783298969268799 2.3603813648223877 0.10899940133094788
N 4.716302871704102 4.625633716583252 -0.271591454744339
N 6.662815093994141 6.247774600982666 -0.29400360584259033
C 8.947626113891602 5.118304252624512 0.057485468685626984
C 8.445148468017578 2.584880828857422 0.32665807008743286
H 3.886013984680176 -3.840301513671875 0.7063985466957092
H 7.182868003845215 -2.67760968208313 0.8660804033279419
H 2.2933528423309326 0.3373350203037262 0.03872048854827881
H 6.287742614746094 8.108965873718262 -0.5604360699653625
H 10.685437202453613 6.189193248748779 0.08445186167955399
H 9.815860748291016 1.1043370962142944 0.6375179886817932
