13
Generated by QM7 dataset
C 1.6501655578613281 -0.4206152558326721 -0.1795239895582199
C 4.476591110229492 -0.07275445759296417 0.2090415060520172
C 5.199770450592041 2.668652296066284 0.15707403421401978
C 6.246263027191162 3.8900957107543945 2.1184775829315186
C 6.917909622192383 6.489583969116211 1.9966657161712646
N 7.469010353088379 8.60945987701416 1.9066202640533447
H 1.1684932708740234 -2.432379961013794 -0.15903934836387634
H 1.040615439414978 0.3625439703464508 -1.9960421323776245
H 0.569979190826416 0.5114544034004211 1.3193689584732056
H 5.504848003387451 -1.060835599899292 -1.2937631607055664
H 5.031452655792236 -0.9538014531135559 1.999840497970581
H 4.850039005279541 3.675328254699707 -1.607174277305603
H 6.617934226989746 2.9245967864990234 3.885277032852173
