13
Generated by QM7 dataset
C 1.7122808694839478 0.08445186167955399 -0.011470637284219265
C 4.5705671310424805 0.015968184918165207 -0.011319459415972233
C 5.91157341003418 1.8370217084884644 1.7838258743286133
O 7.8412861824035645 0.0387960784137249 2.4964795112609863
S 6.080741882324219 -2.383114814758301 1.7234113216400146
O 4.646439552307129 -3.1868720054626465 3.902397871017456
O 7.511963844299316 -4.070129871368408 0.12239756435155869
H 0.9467716813087463 -1.5128958225250244 -1.0799028873443604
H 1.0289369821548462 1.824247121810913 -0.8981301188468933
H 0.9353010654449463 0.0031558426562696695 1.9042203426361084
H 5.317632675170898 0.11068125814199448 -1.9429408311843872
H 4.817535400390625 2.4465527534484863 3.434993028640747
H 6.720773220062256 3.511394500732422 0.8797053098678589
