16
Generated by QM7 dataset
C 1.9082454442977905 -0.041876330971717834 0.0345630906522274
C 4.797580242156982 -0.01171630248427391 -0.07536228001117706
C 5.70742654800415 -1.510118007659912 -2.3773133754730225
C 5.757447719573975 2.731750249862671 -0.10510656982660294
N 8.508831977844238 2.8659019470214844 -0.012075349688529968
H 1.2263755798339844 0.9568250179290771 1.7133958339691162
H 1.1965935230255127 -1.9827007055282593 0.12409831583499908
H 1.0835689306259155 0.8668551445007324 -1.6317784786224365
H 5.5076069831848145 -0.9537069797515869 1.6322509050369263
H 5.090695381164551 -0.6200191378593445 -4.1409759521484375
H 4.954408168792725 -3.4374306201934814 -2.3386871814727783
H 7.770289421081543 -1.6529245376586914 -2.416449546813965
H 4.990124225616455 3.7598936557769775 1.5212295055389404
H 5.097044944763184 3.700745105743408 -1.812266230583191
H 9.143950462341309 2.0212132930755615 1.5978201627731323
H 9.056191444396973 4.708460330963135 0.091047003865242
