12
Generated by QM7 dataset
O 1.8786712884902954 -0.14197511970996857 0.7034127712249756
S 4.574120044708252 0.03853151574730873 0.30392464995384216
O 6.339142799377441 0.47182682156562805 2.3440918922424316
C 5.636183738708496 -2.5257322788238525 -1.6197031736373901
C 6.537394046783447 -1.2022438049316406 -3.947014331817627
C 6.3217387199401855 1.3086731433868408 -4.044996738433838
N 5.117567539215088 2.329824447631836 -1.8809956312179565
H 4.052706718444824 -3.7853105068206787 -2.0222716331481934
H 7.16952657699585 -3.5100905895233154 -0.6550735831260681
H 7.4098429679870605 -2.266291856765747 -5.4621968269348145
H 6.977945804595947 2.5439493656158447 -5.538182735443115
H 5.887819766998291 3.9420254230499268 -1.1523739099502563
