13
Generated by QM7 dataset
C 1.8818459510803223 0.12636598944664001 0.049378544092178345
C 4.682363510131836 -0.023829447105526924 0.007823466323316097
N 6.111072063446045 2.0734641551971436 -0.06190742924809456
N 8.451592445373535 1.1879385709762573 -0.23402369022369385
O 10.429908752441406 2.850954294204712 -0.48548954725265503
C 8.644987106323242 -1.3592989444732666 -0.15550556778907776
C 6.200625896453857 -2.225341558456421 -0.011961966753005981
H 1.2178339958190918 2.086446523666382 0.08609592169523239
H 1.1311711072921753 -0.8356935977935791 1.719594120979309
H 1.0966647863388062 -0.7879402041435242 -1.634424090385437
H 11.347673416137695 2.398308038711548 1.0285968780517578
H 10.437032699584961 -2.3201112747192383 -0.25611457228660583
H 5.580210208892822 -4.170380115509033 0.043652672320604324
