17
Generated by QM7 dataset
C 1.8432577848434448 0.11113479733467102 -0.3144315183162689
C 4.66717004776001 -0.08592584729194641 0.012491089291870594
N 5.532985687255859 -0.034959934651851654 2.6941258907318115
C 6.25973653793335 -1.5684915781021118 -1.87532639503479
N 5.102959632873535 -3.0203304290771484 -3.9317831993103027
C 6.2970967292785645 1.2781729698181152 -1.918487787246704
O 8.511099815368652 2.480057716369629 -0.8776454925537109
H 1.286015272140503 0.3693091869354248 -2.289365530014038
H 1.1078519821166992 1.7292695045471191 0.7492197155952454
H 0.9201265573501587 -1.600900411605835 0.39431026577949524
H 7.287161827087402 -0.8329913020133972 2.834645986557007
H 4.394312381744385 -1.1641091108322144 3.7685484886169434
H 7.97572135925293 -2.453903913497925 -1.165488600730896
H 3.724933624267578 -2.0280163288116455 -4.839210510253906
H 4.275864601135254 -4.621646404266357 -3.254826545715332
H 5.378859996795654 2.22503924369812 -3.4855809211730957
H 8.172215461730957 2.8958730697631836 0.8883791565895081
