18
Generated by QM7 dataset
N 4.042237758636475 -0.7510716319084167 -2.6214280128479004
C 4.495053768157959 0.09095251560211182 -0.032163139432668686
C 6.018116474151611 2.527357578277588 -0.028780529275536537
C 4.652940273284912 4.963327884674072 -0.9198052883148193
C 6.068628787994385 6.38315486907959 1.1920959949493408
C 6.295849323272705 3.8295679092407227 2.5943105220794678
O 8.622291564941406 3.374748468399048 3.928060293197632
H 2.997786045074463 -2.3705859184265137 -2.584502935409546
H 5.7180657386779785 -1.2279818058013916 -3.4446306228637695
H 5.514466285705566 -1.3881739377975464 0.9970384240150452
H 2.6722805500030518 0.3611266613006592 0.9117172956466675
H 7.859276294708252 2.2706382274627686 -0.9608879685401917
H 2.5973150730133057 4.941898345947266 -0.661536455154419
H 5.079810619354248 5.576543807983398 -2.845663070678711
H 7.879685401916504 7.1906538009643555 0.5936763882637024
H 4.972077369689941 7.841361999511719 2.1612420082092285
H 4.6852545738220215 3.484466075897217 3.855098009109497
H 9.96152114868164 3.8382606506347656 2.7583765983581543
