18
Generated by QM7 dataset
C 1.9162578582763672 1.1011812686920166 2.153531789779663
C 4.686161994934082 1.0912412405014038 1.6110292673110962
C 5.777497291564941 2.552339792251587 -0.15327568352222443
C 8.555054664611816 2.5662291049957275 -0.7572888731956482
C 9.801424026489258 5.077373027801514 -0.30670255422592163
C 11.842025756835938 6.014922618865967 -2.0608785152435303
N 9.339517593383789 7.1721720695495605 -2.0545668601989746
H 1.134289264678955 -0.7903023958206177 1.8566181659698486
H 0.8847320079803467 2.4215896129608154 0.9397608041763306
H 1.5847243070602417 1.6417373418807983 4.122135162353516
H 5.833074569702148 -0.19337567687034607 2.7322795391082764
H 4.624291896820068 3.8326480388641357 -1.2788910865783691
H 8.777116775512695 1.9911288022994995 -2.7365312576293945
H 9.547557830810547 1.141640305519104 0.37310752272605896
H 9.924274444580078 5.55201530456543 1.6815539598464966
H 12.304762840270996 4.919429779052734 -3.7273526191711426
H 13.370945930480957 7.132582187652588 -1.287527084350586
H 9.346566200256348 8.853631973266602 -1.1047905683517456
