14
Generated by QM7 dataset
N 2.8016135692596436 -0.24254634976387024 0.3972771167755127
C 5.378236293792725 0.004062911029905081 -0.08792895823717117
C 6.709737300872803 -2.4060938358306885 -0.9264571070671082
O 5.276663303375244 -4.542542457580566 -0.10695850104093552
C 6.5745463371276855 2.222336769104004 0.24776199460029602
C 9.28751277923584 2.670182943344116 -0.23731181025505066
O 10.246132850646973 4.741152763366699 0.15841573476791382
H 1.8228108882904053 1.4137797355651855 0.3315335512161255
H 1.9799983501434326 -1.6042073965072632 -0.7028269171714783
H 8.593964576721191 -2.585636615753174 -0.10230977088212967
H 6.842301368713379 -2.4813427925109863 -2.988375186920166
H 4.462588310241699 -4.012474536895752 1.462931513786316
H 5.566812038421631 3.881610870361328 0.9096574783325195
H 10.396385192871094 1.080186367034912 -0.9875330924987793
