20
Generated by QM7 dataset
C 2.115718364715576 0.7488606572151184 1.7937091588974
N 4.864325046539307 0.81796795129776 1.690416693687439
C 5.738002300262451 2.7883477210998535 -0.0303678996860981
C 8.567130088806152 2.7542190551757812 0.012132042087614536
C 10.045217514038086 1.2036610841751099 -1.8749295473098755
C 10.039888381958008 4.0452423095703125 -2.0624094009399414
C 12.354670524597168 5.5204949378967285 -1.4267243146896362
H 1.5153335332870483 -0.6953058242797852 3.145033359527588
H 1.3006607294082642 0.2789802551269531 -0.04746992141008377
H 1.3438787460327148 2.5575742721557617 2.434382915496826
H 5.524954319000244 -0.8836170434951782 1.0753108263015747
H 5.08366584777832 4.648688316345215 0.6029360294342041
H 5.019547462463379 2.464221715927124 -1.9472872018814087
H 9.301288604736328 2.908534288406372 1.9215868711471558
H 9.020211219787598 0.15287885069847107 -3.3041484355926514
H 11.740452766418457 0.26344671845436096 -1.2110499143600464
H 9.001729011535645 4.899039268493652 -3.6092824935913086
H 13.450919151306152 4.634496688842773 0.08996985852718353
H 11.8357515335083 7.4260945320129395 -0.814283013343811
H 13.57437515258789 5.685297966003418 -3.0880770683288574
