15
Generated by QM7 dataset
C 1.88265860080719 -0.009013993665575981 0.065724678337574
C 4.747502326965332 0.058581508696079254 0.0096942950040102
C 5.839877128601074 2.183729648590088 1.583533763885498
C 8.404386520385742 1.155454158782959 2.272679090499878
O 8.038763046264648 -1.501368522644043 2.561845064163208
C 5.935969829559326 -2.218576192855835 1.2414555549621582
O 5.208331108093262 -4.396788120269775 1.0545616149902344
H 1.1684365272521973 -1.5739529132843018 -1.084665060043335
H 1.090409755706787 1.7506800889968872 -0.6785439848899841
H 1.1657909154891968 -0.28395023941993713 1.988275408744812
H 5.441560745239258 0.1644628643989563 -1.9393503665924072
H 4.720686912536621 2.472101926803589 3.3053576946258545
H 5.941298961639404 3.985697031021118 0.5768011212348938
H 9.805939674377441 1.4724935293197632 0.7834804654121399
H 9.109557151794434 1.9594570398330688 4.0410661697387695
