19
Generated by QM7 dataset
C 1.1465535163879395 0.843687117099762 -0.2869926989078522
C 3.660531759262085 -0.492708295583725 -0.23149144649505615
C 3.4862046241760254 -3.321420431137085 -0.45079416036605835
C 5.828652381896973 0.8271898031234741 -0.014418610371649265
C 8.49505615234375 -0.18400263786315918 -0.0035148905590176582
C 9.864880561828613 0.39946919679641724 2.473613739013672
O 8.828668594360352 -1.0143672227859497 4.514650344848633
H 1.3453149795532227 2.9000871181488037 -0.16300778090953827
H -0.02547350898385048 0.23067887127399445 1.3054795265197754
H 0.14539553225040436 0.41281068325042725 -2.0462522506713867
H 1.9147650003433228 -4.0388360023498535 0.6920177340507507
H 5.182101726531982 -4.292437553405762 0.21493744850158691
H 3.1506080627441406 -3.859954595565796 -2.420380115509033
H 5.710809230804443 2.880131483078003 0.11986532807350159
H 9.51836109161377 0.7131070494651794 -1.5656380653381348
H 8.542147636413574 -2.2201826572418213 -0.3490324020385742
H 9.769695281982422 2.4125378131866455 2.946706533432007
H 11.859977722167969 -0.12218969315290451 2.308621644973755
H 7.017989158630371 -0.6842131614685059 4.532564640045166
