13
Generated by QM7 dataset
C 5.529886722564697 -2.540642261505127 0.5420301556587219
C 5.065335273742676 -0.09718861430883408 -0.8571608662605286
O 3.3692305088043213 -0.030972611159086227 -2.46490216255188
S 6.777729511260986 2.8353641033172607 -0.36394235491752625
C 5.374078750610352 4.9872517585754395 -2.511427164077759
O 6.189609050750732 3.6095659732818604 2.1998679637908936
O 9.353294372558594 2.3266875743865967 -1.1542636156082153
H 7.221116065979004 -2.3500823974609375 1.7120729684829712
H 5.825647830963135 -4.067106246948242 -0.8163238763809204
H 3.9105048179626465 -2.9542088508605957 1.753646969795227
H 5.622029781341553 4.279209136962891 -4.432862758636475
H 6.328806400299072 6.8057732582092285 -2.307525634765625
H 3.3741815090179443 5.192249298095703 -2.049445867538452
