20
Generated by QM7 dataset
C 1.872094988822937 -0.021864131093025208 0.21949169039726257
C 4.730362415313721 0.008465972729027271 0.037567757070064545
C 6.1276068687438965 2.0173583030700684 1.6550788879394531
C 8.104090690612793 -0.01921851560473442 2.371568441390991
C 9.066603660583496 -0.06700968742370605 5.0584001541137695
N 10.170845985412598 0.052080851048231125 0.519447922706604
C 6.1650614738464355 -2.053622007369995 1.5521643161773682
H 1.0996694564819336 -1.6668518781661987 -0.7685516476631165
H 1.0713990926742554 1.6752989292144775 -0.650783896446228
H 1.231345534324646 -0.09645162522792816 2.1851091384887695
H 5.320637226104736 0.06513886153697968 -1.9531642198562622
H 5.018167972564697 2.6937479972839355 3.2720985412597656
H 6.81011962890625 3.6746103763580322 0.6213608384132385
H 7.502836227416992 -0.1088104322552681 6.413938522338867
H 10.207430839538574 1.60940420627594 5.47723913192749
H 10.235776901245117 -1.7396440505981445 5.408207416534424
H 9.620935440063477 0.13343356549739838 -1.324263334274292
H 11.375565528869629 -1.4459806680679321 0.6443777084350586
H 6.877884864807129 -3.643146276473999 0.4360164999961853
H 5.0705885887146 -2.831338882446289 3.13329815864563
