18
Generated by QM7 dataset
C 1.6701210737228394 4.395824432373047 -1.0288424491882324
N 3.41637921333313 2.5174365043640137 -0.02048463188111782
C 6.029114723205566 3.4172861576080322 -0.19949838519096375
C 7.881688594818115 1.4151780605316162 0.7756192088127136
C 7.791567802429199 -1.0783344507217407 -0.6760306358337402
C 8.69200325012207 -0.8636237382888794 -3.3734633922576904
O 9.84681510925293 0.9508724212646484 -4.2394304275512695
H -0.2640892267227173 3.6758196353912354 -0.8997364044189453
H 2.0571370124816895 4.783444881439209 -3.024034261703491
H 1.7640782594680786 6.1669135093688965 0.03658509626984596
H 2.982365846633911 2.191042900085449 1.8291982412338257
H 6.258659362792969 5.135349750518799 0.9374364614486694
H 6.4844818115234375 3.9070844650268555 -2.158350706100464
H 7.481217861175537 1.0329620838165283 2.7740235328674316
H 9.799760818481445 2.1979215145111084 0.6991419792175293
H 5.875706672668457 -1.8579976558685303 -0.7038096189498901
H 9.010856628417969 -2.468757152557373 0.2556610405445099
H 8.346278190612793 -2.5502798557281494 -4.550573825836182
