14
Generated by QM7 dataset
C 2.0294902324676514 0.25688937306404114 -0.040874775499105453
C 4.8805389404296875 -0.010865924879908562 0.26686713099479675
O 6.055816173553467 2.298095941543579 -0.3981086015701294
C 6.936466693878174 2.1938586235046387 -2.9358973503112793
O 8.633081436157227 0.12886042892932892 -3.3077011108398438
N 7.494068145751953 -2.2682759761810303 -2.960766315460205
C 5.776647090911865 -2.3035950660705566 -1.2106719017028809
H 1.3328616619110107 1.8908411264419556 1.0217370986938477
H 1.0383856296539307 -1.4362107515335083 0.6180916428565979
H 1.5155792236328125 0.5622879862785339 -2.0238587856292725
H 5.287755966186523 -0.3711988925933838 2.264005184173584
H 7.9714884757995605 3.940929412841797 -3.3220062255859375
H 5.356088638305664 2.082383632659912 -4.272481918334961
H 4.873263359069824 -4.125442028045654 -0.7556259036064148
