15
Generated by QM7 dataset
N 2.4787914752960205 -1.2977126836776733 -0.9234146475791931
C 4.452345848083496 0.643791913986206 -0.7009561061859131
C 4.166354656219482 2.0961976051330566 1.7832778692245483
O 2.099032163619995 2.665137529373169 2.682239532470703
N 6.501602649688721 2.7766313552856445 2.806318998336792
C 6.830528259277344 5.208482265472412 3.9609415531158447
C 6.840052604675293 2.863823175430298 5.496722221374512
H 2.254915714263916 -1.7652498483657837 -2.775969982147217
H 0.8059682250022888 -0.5104528069496155 -0.3516969382762909
H 4.277546405792236 2.011896848678589 -2.243142604827881
H 6.31121301651001 -0.2538280189037323 -0.8130735754966736
H 5.173314094543457 6.406965255737305 3.987189769744873
H 8.604735374450684 6.1006975173950195 3.4855809211730957
H 8.620684623718262 2.0831964015960693 6.120577335357666
H 5.190094947814941 2.399139642715454 6.612624168395996
