17
Generated by QM7 dataset
N 1.619438648223877 3.271493911743164 -1.3067456483840942
N 4.137574195861816 3.529649257659912 -1.6499388217926025
C 5.44838285446167 2.214740037918091 -0.05593589320778847
C 8.369162559509277 2.2289319038391113 -0.10321684181690216
C 9.773115158081055 4.209875106811523 -1.7524374723434448
C 11.787639617919922 4.346445560455322 0.3441569209098816
C 9.728933334350586 3.4469549655914307 2.194028615951538
H 0.7192486524581909 4.762260913848877 -2.1509618759155273
H 0.9729821681976318 1.732255220413208 -2.2842442989349365
H 4.554598808288574 1.0265936851501465 1.4123435020446777
H 9.076505661010742 0.3076663017272949 -0.4698048233985901
H 8.751907348632812 5.990261554718018 -2.0303406715393066
H 10.446859359741211 3.531520128250122 -3.583771228790283
H 13.338065147399902 2.994516611099243 0.10108145326375961
H 12.575485229492188 6.21897554397583 0.7148078083992004
H 10.36367416381836 2.136051893234253 3.658717632293701
H 8.673974990844727 4.991427898406982 3.0850346088409424
