12
Generated by QM7 dataset
C 0.3346704840660095 -1.7561414241790771 -0.8207647800445557
C 1.9849494695663452 0.43297404050827026 -0.09989092499017715
O 4.050306797027588 0.859806478023529 -1.0484200716018677
O 0.8003368377685547 1.8170472383499146 1.7467116117477417
C 2.1017911434173584 3.9347310066223145 2.62314772605896
C 1.142566204071045 5.410191535949707 4.428951263427734
H -1.4626102447509766 -1.0634812116622925 -1.5659971237182617
H 0.02379165217280388 -2.970290422439575 0.8207458257675171
H 1.272806167602539 -2.865429639816284 -2.2911229133605957
H 3.914964437484741 4.2829508781433105 1.7406456470489502
H -0.681529700756073 5.005563259124756 5.272071361541748
H 2.1707661151885986 7.053346157073975 5.095759868621826
