17
Generated by QM7 dataset
C 4.493428707122803 -3.2953989505767822 1.0871027708053589
C 6.3558669090271 -1.724639654159546 -0.43813300132751465
C 5.680157661437988 1.0257433652877808 -0.3658698797225952
C 7.19464111328125 2.816202163696289 0.575175940990448
O 6.476450443267822 5.305708408355713 0.6738007664680481
C 8.1509370803833 7.054101943969727 1.5951178073883057
C 7.433048725128174 9.400612831115723 2.1838619709014893
H 5.0406174659729 -5.28938102722168 1.0484956502914429
H 2.57960844039917 -3.143559455871582 0.3146582841873169
H 4.440610885620117 -2.6841859817504883 3.0635862350463867
H 6.354676723480225 -2.367656707763672 -2.4069063663482666
H 8.267664909362793 -2.0344979763031006 0.29984283447265625
H 3.84491229057312 1.567849040031433 -1.118377685546875
H 9.038030624389648 2.4095141887664795 1.3574658632278442
H 10.077984809875488 6.412312984466553 1.7970539331436157
H 5.484042167663574 9.992002487182617 1.962518334388733
H 8.781841278076172 10.76066780090332 2.9136931896209717
