17
Generated by QM7 dataset
C 1.8570528030395508 -0.2717237174510956 0.1366838961839676
C 4.726961135864258 -0.03221983090043068 -0.001908623380586505
C 5.720938205718994 2.707637310028076 0.0
C 4.730419158935547 4.229093551635742 -2.248811960220337
O 4.860167980194092 3.9434237480163574 2.24017596244812
C 8.449702262878418 2.707637310028076 0.0
C 10.698779106140137 2.707637310028076 0.0
H 1.3244901895523071 -2.266650915145874 0.27280086278915405
H 0.9517605900764465 0.49815070629119873 -1.5530147552490234
H 1.0969860553741455 0.6995388269424438 1.794502854347229
H 5.401914596557617 -1.0384422540664673 -1.687185287475586
H 5.504507541656494 -1.0424107313156128 1.6385626792907715
H 5.212318420410156 3.334724187850952 -4.053651332855225
H 5.528677463531494 6.143631935119629 -2.256899833679199
H 2.6766836643218994 4.4751739501953125 -2.15763258934021
H 5.7294230461120605 3.1532914638519287 3.653048515319824
H 12.712773323059082 2.719693899154663 -0.002891280921176076
