11
Generated by QM7 dataset
O 1.7834668159484863 0.035375673323869705 -0.011602918617427349
C 4.310370922088623 -0.029498625546693802 -0.0003779452235903591
C 5.838743686676025 2.063448667526245 0.007804568856954575
N 8.291268348693848 1.2114845514297485 0.018198063597083092
C 8.30638599395752 -1.38327956199646 0.016554001718759537
C 5.834189414978027 -2.204989194869995 0.005007774103432894
H 1.2003729343414307 1.7774386405944824 -0.013058007694780827
H 5.432773590087891 4.06463098526001 0.007313240319490433
H 9.847986221313477 2.3221333026885986 0.025851452723145485
H 10.0690279006958 -2.418698310852051 0.023734960705041885
H 5.205439567565918 -4.1495361328125 0.000925965781789273
