15
Generated by QM7 dataset
C 6.752445220947266 3.973092555999756 4.147117614746094
O 7.933505058288574 1.9536933898925781 2.823005199432373
C 7.836429595947266 2.2876269817352295 0.12717856466770172
S 10.037545204162598 4.495771884918213 -1.2433074712753296
C 12.938501358032227 3.670301675796509 0.22733405232429504
O 10.26992416381836 3.9185738563537598 -3.9142086505889893
O 9.373910903930664 7.0305938720703125 -0.4323504567146301
H 6.715954303741455 3.4869604110717773 6.155405044555664
H 4.805838108062744 4.239449501037598 3.5027964115142822
H 7.828662872314453 5.721146106719971 3.935997247695923
H 5.930999755859375 2.8170526027679443 -0.48543286323547363
H 8.288074493408203 0.4538366198539734 -0.7167920470237732
H 12.785452842712402 4.003120422363281 2.2567298412323
H 14.423807144165039 4.859884262084961 -0.5703760385513306
H 13.34016227722168 1.684766411781311 -0.1628188043832779
