16
Generated by QM7 dataset
C 1.6635825634002686 -0.11457409709692001 -0.18436168134212494
C 4.186404705047607 -0.0607357993721962 0.03830474987626076
C 5.654192924499512 2.363574981689453 0.41776174306869507
N 8.157891273498535 2.323342800140381 -0.7655658721923828
C 9.641968727111816 0.1458679586648941 0.061775147914886475
C 8.18952465057373 -2.2853779792785645 0.0042140893638134
C 5.657689094543457 -2.371833086013794 -0.049699798226356506
H 0.5543322563171387 1.612295389175415 -0.10845138132572174
H 0.6302047967910767 -1.8680698871612549 -0.4417046010494232
H 4.603637218475342 3.952286720275879 -0.39918574690818787
H 5.843297958374023 2.7434287071228027 2.4484047889709473
H 9.09714126586914 3.9321422576904297 -0.2893359661102295
H 10.38442325592041 0.44824305176734924 1.9726284742355347
H 11.270894050598145 -0.026871904730796814 -1.2055130004882812
H 9.266555786132812 -4.026118278503418 -0.015457959845662117
H 4.6882405281066895 -4.176143646240234 -0.15030881762504578
