13
Generated by QM7 dataset
C 6.059085369110107 -2.251079559326172 0.8338416814804077
O 4.651352882385254 0.014985527843236923 0.39756059646606445
C 5.890389919281006 2.197449207305908 0.16563449800014496
N 4.756214141845703 4.3294758796691895 -0.23094342648983002
N 6.646412372589111 6.258848667144775 -0.37836095690727234
C 8.821222305297852 5.196331024169922 -0.06400502473115921
C 8.67465591430664 2.420266628265381 0.3346704840660095
H 4.719080924987793 -3.818286180496216 0.9676909446716309
H 7.097301006317139 -2.1241087913513184 2.6168172359466553
H 7.341245651245117 -2.619840621948242 -0.745119035243988
H 10.636493682861328 6.2014384269714355 -0.08055902272462845
H 9.646522521972656 1.4233417510986328 -1.1839700937271118
H 9.401387214660645 1.9217947721481323 2.19695782661438
