19
Generated by QM7 dataset
C 3.8960862159729004 -0.7920598387718201 2.9447224140167236
C 4.807595729827881 0.2463258057832718 0.8241473436355591
C 6.169219017028809 2.73551082611084 0.728376030921936
C 8.835018157958984 2.453885078430176 -0.36142900586128235
C 10.174796104431152 4.953425884246826 -0.4914799630641937
C 12.062159538269043 5.68979549407959 1.5087006092071533
C 12.952900886535645 5.027540683746338 -1.1071338653564453
H 2.916546583175659 -2.5938570499420166 2.892981767654419
H 4.098305702209473 0.12489200383424759 4.768100261688232
H 4.543052673339844 -0.740375816822052 -0.9606800675392151
H 6.271604061126709 3.5964322090148926 2.6115448474884033
H 5.0678863525390625 4.035755634307861 -0.4526272118091583
H 8.725357055664062 1.669062852859497 -2.276893138885498
H 9.921950340270996 1.104733943939209 0.7797576785087585
H 9.012519836425781 6.425144672393799 -1.3190476894378662
H 12.4769926071167 4.368045330047607 3.019026517868042
H 12.14362621307373 7.6562819480896 2.078566551208496
H 13.624471664428711 6.546427249908447 -2.3068454265594482
H 13.949050903320312 3.2564516067504883 -1.3648358583450317
