15
Generated by QM7 dataset
C 1.7222775220870972 0.049794282764196396 0.22831670939922333
C 4.579090118408203 0.11281664669513702 0.026456166058778763
C 5.97367000579834 2.053962230682373 1.7451621294021606
C 7.946789741516113 -0.04480540752410889 2.200416088104248
O 10.1401948928833 -0.09733979403972626 2.8697948455810547
C 6.040660858154297 -2.1089911460876465 1.3160241842269897
O 7.065251350402832 -3.9804625511169434 -0.37735942006111145
H 0.9553510546684265 -1.5485360622406006 -0.8382636308670044
H 0.9041205644607544 1.7824841737747192 -0.5511386394500732
H 1.0985544919967651 -0.12935175001621246 2.192063331604004
H 5.128773212432861 0.3279052674770355 -1.9673182964324951
H 4.977255344390869 2.6055731773376465 3.4702930450439453
H 6.69822883605957 3.7254626750946045 0.7766585350036621
H 5.065467357635498 -2.994081974029541 2.914543628692627
H 8.830047607421875 -4.152238368988037 0.12844468653202057
