14
Generated by QM7 dataset
C 2.0821001529693604 0.002796794753521681 0.26868125796318054
C 4.8650431632995605 0.03299461677670479 -0.229374960064888
N 6.023577690124512 2.111825704574585 -0.8176277875900269
O 8.650239944458008 1.9172972440719604 -1.260825276374817
C 9.80998420715332 0.07209305465221405 0.3177952468395233
C 8.591999053955078 -2.418849468231201 -0.33268627524375916
O 5.923951148986816 -2.280238151550293 0.1003822535276413
H 1.3565020561218262 -1.9307520389556885 0.2630309760570526
H 1.1051685810089111 1.076954960823059 -1.2003918886184692
H 1.7112414836883545 0.8616962432861328 2.1093878746032715
H 11.836715698242188 0.039759837090969086 -0.08116373419761658
H 9.524313926696777 0.5949802994728088 2.3008737564086914
H 9.356922149658203 -3.9374334812164307 0.8433091640472412
H 8.878235816955566 -2.916093111038208 -2.3217554092407227
