16
Generated by QM7 dataset
O 3.8144500255584717 -1.4824146032333374 1.3636075258255005
C 5.373285293579102 -0.5617021918296814 -0.6113830804824829
C 5.779462814331055 2.189020872116089 -0.16425499320030212
C 8.057394981384277 3.29715633392334 -0.011565123684704304
C 8.50363540649414 5.984592437744141 0.44750604033470154
C 8.464064598083496 6.949826717376709 3.124321937561035
N 10.83667278289795 6.651571273803711 1.7565760612487793
H 3.704392433166504 -3.3012759685516357 1.1426417827606201
H 4.402986526489258 -0.8543452024459839 -2.4129157066345215
H 7.147246360778809 -1.6244652271270752 -0.6167310476303101
H 4.084057331085205 3.325162172317505 0.06816241890192032
H 9.739459991455078 2.1325559616088867 -0.2327008694410324
H 7.917612552642822 7.2523908615112305 -1.0537868738174438
H 8.132946968078613 5.625336647033691 4.650275707244873
H 7.825167179107666 8.862627029418945 3.463754653930664
H 11.494258880615234 8.356727600097656 1.1395237445831299
