17
Generated by QM7 dataset
N 1.7794227600097656 -0.16761870682239532 0.17510202527046204
C 4.552614688873291 -0.0886092558503151 -0.21467289328575134
C 5.282993793487549 -0.058827172964811325 -2.9908506870269775
O 3.8684017658233643 1.8551251888275146 -4.265055179595947
C 5.730424404144287 1.9455108642578125 1.5222688913345337
N 7.457747459411621 0.015911493450403214 2.5748274326324463
C 5.8668060302734375 -2.0235376358032227 1.5304324626922607
H 1.2632063627243042 0.03237100690603256 2.0269012451171875
H 0.9765160083770752 -1.8288958072662354 -0.389585942029953
H 4.8438029289245605 -1.8695439100265503 -3.893005847930908
H 7.29749870300293 0.3231242597103119 -3.265749216079712
H 2.2258517742156982 1.8806931972503662 -3.4143192768096924
H 4.484282493591309 2.7668426036834717 2.9605960845947266
H 6.695526599884033 3.5025696754455566 0.5584329962730408
H 9.226436614990234 0.08819352090358734 1.8078064918518066
H 6.93263053894043 -3.5169692039489746 0.5718311071395874
H 4.671629905700684 -2.919192314147949 2.968268394470215
