18
Generated by QM7 dataset
C 1.962140440940857 -0.44487932324409485 0.33765625953674316
C 4.747577667236328 0.11349695175886154 -0.22287429869174957
O 6.290236949920654 -0.8486382365226746 1.8195984363555908
C 5.643024444580078 -1.1742569208145142 -2.698150873184204
N 5.349587917327881 -3.9363372325897217 -2.614398241043091
C 5.18574857711792 2.9904727935791016 -0.3543992340564728
O 7.813922882080078 3.5404586791992188 -0.6046367883682251
H 0.7428513169288635 0.16924387216567993 -1.21505606174469
H 1.3522502183914185 0.5233218669891357 2.063713312149048
H 1.648389220237732 -2.462294340133667 0.6739897131919861
H 5.407961368560791 -0.49297285079956055 3.394118309020996
H 7.6531453132629395 -0.7816663384437561 -3.0054771900177
H 4.592223644256592 -0.4368668794631958 -4.320877552032471
H 6.199208736419678 -4.548778533935547 -0.988647997379303
H 6.351161479949951 -4.715055465698242 -4.063100337982178
H 4.551084041595459 3.9045143127441406 1.3902525901794434
H 4.180225372314453 3.844534397125244 -1.946455717086792
H 8.680551528930664 2.3504602909088135 0.512909471988678
