14
Generated by QM7 dataset
C 2.435478925704956 -0.350884348154068 -0.6125169396400452
C 4.862945556640625 0.8944829702377319 0.21062888205051422
C 7.155561447143555 -0.7751467823982239 0.49614760279655457
C 8.672860145568848 -0.8534192442893982 -1.8937512636184692
O 9.096480369567871 -2.8123092651367188 -3.060335874557495
N 4.863418102264404 3.329073905944824 0.5397247076034546
O 7.254904270172119 4.224539279937744 1.215226173400879
H 0.9301232099533081 1.0480420589447021 -0.8254701495170593
H 1.8683722019195557 -1.744519591331482 0.8030580282211304
H 2.7338478565216064 -1.30213463306427 -2.4223642349243164
H 6.5446319580078125 -2.693955898284912 0.9717727899551392
H 8.370447158813477 -0.11502762883901596 2.031984806060791
H 9.44435977935791 0.9717538952827454 -2.5465383529663086
H 6.934406757354736 6.018815517425537 1.5114407539367676
