16
Generated by QM7 dataset
N 1.9448494911193848 0.015306781977415085 0.5003238916397095
C 4.667623519897461 0.0 0.0
C 5.203587532043457 -1.3418378829956055 -2.5434768199920654
C 7.981390476226807 -1.6662471294403076 -3.1017398834228516
C 9.13552188873291 -3.902775764465332 -3.3840081691741943
C 5.578509330749512 2.5722384452819824 0.0
C 6.329259872436523 4.692322254180908 0.0
H 1.6363705396652222 0.8794785141944885 2.192857027053833
H 1.3291956186294556 -1.7961090803146362 0.694871187210083
H 5.59084939956665 -1.060665488243103 1.523327112197876
H 4.359711647033691 -0.27115681767463684 -4.108264446258545
H 4.28108024597168 -3.2009127140045166 -2.538393497467041
H 9.089337348937988 0.05304461345076561 -3.323272466659546
H 8.121665000915527 -5.676813125610352 -3.213573694229126
H 11.1408052444458 -3.9968652725219727 -3.8087241649627686
H 6.987300395965576 6.595030784606934 -0.006991986650973558
