16
Generated by QM7 dataset
C 1.8122851848602295 0.2252742499113083 0.4181963801383972
C 4.022641181945801 0.2184523344039917 -0.09858701378107071
C 6.72523307800293 0.2099674642086029 -0.733931839466095
N 8.143226623535156 1.5829291343688965 1.1956486701965332
C 10.858234405517578 1.656004786491394 0.666298508644104
C 11.942256927490234 3.9054970741271973 -0.684288740158081
C 12.461194038391113 3.5274760723114014 2.0783963203430176
H -0.14909939467906952 0.24659036099910736 0.8792139887809753
H 7.0014543533325195 1.0910522937774658 -2.587261915206909
H 7.39595365524292 -1.7469573020935059 -0.8586915731430054
H 7.802546977996826 0.7628068327903748 2.905170440673828
H 11.736598014831543 -0.16763760149478912 0.2984822392463684
H 10.677764892578125 5.427274703979492 -1.2154529094696045
H 13.474900245666504 3.587437152862549 -2.003242015838623
H 14.346120834350586 2.9500136375427246 2.6312925815582275
H 11.548721313476562 4.796748638153076 3.4019417762756348
