17
Generated by QM7 dataset
C 1.6877332925796509 3.339505195617676 2.8697569370269775
C 3.172661304473877 3.3307557106018066 0.8210670948028564
C 5.244519233703613 1.4323179721832275 0.35797083377838135
C 7.863773822784424 2.646939277648926 0.09250209480524063
N 8.702359199523926 3.701009750366211 2.4830434322357178
C 11.065216064453125 4.62346076965332 2.9163198471069336
N 13.085219383239746 4.260255336761475 1.628339171409607
H 0.2023707777261734 4.740283489227295 3.085979461669922
H 1.8975306749343872 1.950027346611023 4.366174221038818
H 2.8648815155029297 4.749902248382568 -0.6383494734764099
H 4.797787666320801 0.42295849323272705 -1.3956950902938843
H 5.28562068939209 0.01729099452495575 1.8723784685134888
H 7.831969738006592 4.131338119506836 -1.3517967462539673
H 9.191325187683105 1.1845180988311768 -0.5314854979515076
H 7.302676677703857 4.539462089538574 3.499602794647217
H 11.154581069946289 5.807903289794922 4.630547046661377
H 12.717630386352539 3.0960516929626465 0.1375531703233719
