16
Generated by QM7 dataset
C 1.3188965320587158 -0.42953476309776306 0.874055027961731
C 3.985715866088867 -0.9548219442367554 0.03892835974693298
C 4.715811729431152 -3.283247947692871 -0.6631804704666138
C 5.811078071594238 1.241909146308899 0.10675062984228134
C 5.093416690826416 3.295776844024658 -1.7176287174224854
C 4.598686218261719 5.68777322769165 -1.046265721321106
H 1.3098258972167969 0.42450806498527527 2.758584499359131
H 0.1830388754606247 -2.1577460765838623 0.9671429395675659
H 0.3814223110675812 0.8616206049919128 -0.44151562452316284
H 3.404719591140747 -4.861320495605469 -0.6801313161849976
H 6.646091461181641 -3.6772937774658203 -1.2388288974761963
H 7.72665548324585 0.610287070274353 -0.3719925880432129
H 5.9114789962768555 1.9700206518173218 2.0454206466674805
H 4.989973068237305 2.77374005317688 -3.703636407852173
H 4.685160160064697 6.297758102416992 0.9090527296066284
H 4.091540336608887 7.08932638168335 -2.456587314605713
