17
Generated by QM7 dataset
C 1.8870993852615356 -0.07273555546998978 0.15329457819461823
C 4.750979423522949 -0.05584140866994858 0.13897046446800232
C 5.893432140350342 2.208787441253662 1.548309326171875
C 8.483169555664062 1.2680062055587769 2.4277122020721436
C 8.011002540588379 -1.5323222875595093 2.6437647342681885
N 9.616117477416992 -3.0480904579162598 3.6400094032287598
N 5.7665557861328125 -2.1815943717956543 1.5549800395965576
H 1.1632208824157715 -1.7535902261734009 -0.8133381009101868
H 1.1394292116165161 1.5982170104980469 -0.8096720576286316
H 1.1349316835403442 -0.09798230230808258 2.0820436477661133
H 5.463935375213623 -0.11946848779916763 -1.80587899684906
H 4.745480060577393 2.6991524696350098 3.2050700187683105
H 6.031230926513672 3.892476797103882 0.355948805809021
H 9.941584587097168 1.5983681678771973 0.9993627667427063
H 9.059366226196289 2.0888843536376953 4.231966018676758
H 8.899646759033203 -4.8423285484313965 3.5910277366638184
H 5.602452278137207 -3.929610013961792 0.797351062297821
