20
Generated by QM7 dataset
C 4.936342716217041 -2.7509498596191406 -0.6645599603652954
C 3.799785614013672 -0.17927831411361694 -0.022468844428658485
N 2.0181708335876465 -0.37837985157966614 2.076185464859009
C 5.7891950607299805 1.8029499053955078 0.6245923042297363
C 7.67686128616333 1.1219303607940674 2.657994270324707
C 6.744035720825195 3.4612035751342773 -1.512139916419983
C 5.008265495300293 4.5573015213012695 0.44399115443229675
H 6.332566738128662 -2.5749218463897705 -2.1827471256256104
H 3.467968702316284 -4.065273284912109 -1.2993568181991577
H 5.883416652679443 -3.6118147373199463 0.962645411491394
H 2.725400924682617 0.4589955806732178 -1.677169680595398
H 2.912672758102417 -1.1069071292877197 3.61472487449646
H 0.6433005928993225 -1.6451010704040527 1.6204968690872192
H 8.924874305725098 2.7130231857299805 3.103062629699707
H 8.879691123962402 -0.4444824755191803 2.0454394817352295
H 6.726555824279785 0.578218400478363 4.411320209503174
H 5.995080471038818 3.177517890930176 -3.3983891010284424
H 8.703681945800781 4.060473442077637 -1.493639588356018
H 5.784999847412109 5.888500213623047 1.793520212173462
H 3.0771355628967285 4.982168674468994 -0.09853032231330872
