15
Generated by QM7 dataset
C 1.713528037071228 0.17132256925106049 1.1132187843322754
C 4.426022052764893 0.3229163885116577 0.16121253371238708
N 4.554145336151123 -0.25335559248924255 -2.5548720359802246
N 4.234668254852295 -2.7081286907196045 -3.2121376991271973
C 4.400813102722168 -3.0917809009552 -5.6170973777771
C 5.455356121063232 2.9760351181030273 0.5868733525276184
O 6.864902496337891 4.085493564605713 -0.8932357430458069
H 1.6120308637619019 0.6678481101989746 3.1210150718688965
H 0.9447875022888184 -1.738340139389038 0.897619903087616
H 0.4789133071899414 1.4855514764785767 0.09386269748210907
H 5.63470983505249 -0.966878354549408 1.241720199584961
H 6.201231002807617 0.5048403143882751 -3.2554500102996826
H 4.17060661315918 -5.019981861114502 -6.365787982940674
H 4.754116535186768 -1.5794708728790283 -7.011167526245117
H 5.019754886627197 3.818323850631714 2.444946527481079
