16
Generated by QM7 dataset
N 1.9170893430709839 -0.02326252870261669 0.04922736436128616
C 4.667623519897461 0.0 0.0
C 5.578509330749512 2.5722384452819824 0.0
C 6.329259872436523 4.692322254180908 0.0
C 7.240145683288574 7.264560699462891 0.0
C 5.07368803024292 9.168743133544922 -0.054688673466444016
O 6.030021667480469 11.683855056762695 0.02158067189157009
H 1.3034007549285889 -1.8379476070404053 -0.11013323813676834
H 1.262979507446289 0.9092417359352112 -1.5031259059906006
H 5.332296848297119 -1.0041816234588623 -1.6830090284347534
H 5.381656646728516 -1.0220205783843994 1.6507703065872192
H 8.481714248657227 7.600686550140381 -1.6246353387832642
H 8.413457870483398 7.6146135330200195 1.672029733657837
H 3.7912063598632812 8.90843391418457 1.5493109226226807
H 3.962566614151001 8.964766502380371 -1.788795828819275
H 6.789370059967041 11.932467460632324 1.6776422262191772
