14
Generated by QM7 dataset
C 2.240553855895996 0.2738780081272125 -0.26017749309539795
N 4.996303558349609 0.3913622796535492 -0.06937184929847717
C 6.277462482452393 -1.2468223571777344 -1.8852852582931519
C 6.184166431427002 1.574406385421753 -2.3069777488708496
C 8.433186531066895 3.1550488471984863 -1.7380566596984863
O 8.854236602783203 3.4446682929992676 0.7711405158042908
O 9.732789039611816 4.084926605224609 -3.3964426517486572
H 1.424759030342102 2.0386743545532227 0.44750604033470154
H 1.5319442749023438 -1.2663432359695435 0.9257201552391052
H 1.528618335723877 -0.027722282335162163 -2.1834652423858643
H 5.151412487030029 -2.4503133296966553 -3.102023124694824
H 8.045036315917969 -2.0775649547576904 -1.2652661800384521
H 4.966370582580566 2.2951102256774902 -3.7874269485473633
H 7.546394348144531 2.4569084644317627 1.6550410985946655
