13
Generated by QM7 dataset
C 1.7232601642608643 0.026078220456838608 -0.0015495754778385162
C 4.2405266761779785 -0.009410835802555084 0.0022109795827418566
O 5.733277797698975 2.148146152496338 0.010317904874682426
C 8.23648452758789 1.3626437187194824 0.015533548779785633
C 10.20093059539795 2.9370689392089844 0.02698528952896595
C 8.271236419677734 -1.3513809442520142 0.00808802805840969
C 5.880676746368408 -2.1722779273986816 0.0002834589104168117
H 0.7126535177230835 1.8089970350265503 0.0010960411746054888
H 0.6244221925735474 -1.7022086381912231 -0.006651835981756449
H 12.129717826843262 2.248471736907959 0.03186078369617462
H 9.903090476989746 4.96476411819458 0.03246549516916275
H 9.948236465454102 -2.5068349838256836 0.009335246868431568
H 5.267498016357422 -4.1144819259643555 -0.005971534643322229
