11
Generated by QM7 dataset
C 1.638789415359497 0.07112929224967957 -0.0978500172495842
C 3.9040229320526123 0.013473747298121452 -0.06224757805466652
C 6.798611164093018 -0.061869632452726364 -0.013095801696181297
C 9.065261840820312 -0.12579907476902008 0.03119937889277935
C 11.764093399047852 -0.20928716659545898 0.10096807032823563
C 13.185110092163086 -1.5086817741394043 -1.9917335510253906
O 12.931982040405273 1.185179591178894 -1.909360408782959
H -0.3729563355445862 0.12489200383424759 -0.13029661774635315
H 12.653889656066895 -0.11039780080318451 1.9426385164260864
H 12.138089179992676 -2.5131278038024902 -3.434898614883423
H 15.024078369140625 -2.2975857257843018 -1.5674333572387695
