13
Generated by QM7 dataset
C 1.626638412475586 0.08208969980478287 -0.006141609977930784
C 4.4419145584106445 0.058657098561525345 -0.00818251445889473
C 6.104968070983887 2.0561165809631348 -0.003855041228234768
O 5.291195392608643 4.464005470275879 0.003647171426564455
C 8.674617767333984 1.2961820363998413 -0.00818251445889473
C 8.9013090133667 -1.298714280128479 -0.016062671318650246
S 6.022500514984131 -2.77077317237854 -0.01829254813492298
H 0.8859980702400208 2.014183521270752 0.017272096127271652
H 0.8876610398292542 -0.8931412696838379 1.6629589796066284
H 0.8864516615867615 -0.8536081910133362 -1.6970685720443726
H 6.720036029815674 5.618401527404785 0.005744767375290394
H 10.287555694580078 2.5540404319763184 -0.005839253775775433
H 10.618106842041016 -2.4076056480407715 -0.020786987617611885
