17
Generated by QM7 dataset
C 4.843935012817383 -2.296168327331543 -0.725598156452179
N 3.693507432937622 0.04998325556516647 0.06479871273040771
C 4.968940258026123 2.3198089599609375 -0.04017557576298714
C 3.3858602046966553 4.6905646324157715 0.2697017192840576
N 7.408104419708252 2.415391206741333 -0.37900346517562866
O 8.293686866760254 4.912154197692871 -0.42284512519836426
C 10.964380264282227 4.855877876281738 -0.7100834846496582
H 3.570505142211914 -3.8703291416168213 -0.308459997177124
H 6.620806694030762 -2.635204315185547 0.27693936228752136
H 5.205174922943115 -2.277611255645752 -2.7610599994659424
H 1.787340760231018 0.11584021151065826 -0.09671618044376373
H 1.3804070949554443 4.227015018463135 0.46245378255844116
H 3.619335889816284 5.907793998718262 -1.3850369453430176
H 3.990610361099243 5.709202766418457 1.9639545679092407
H 11.651238441467285 6.8009352684021 -0.8109570741653442
H 11.479726791381836 3.876225233078003 -2.4561147689819336
H 11.836469650268555 3.923884153366089 0.9161014556884766
