14
Generated by QM7 dataset
C 1.6503734588623047 -2.108480930328369 1.7736780643463135
C 2.1177971363067627 -0.7309649586677551 -0.6797155737876892
C 1.620988130569458 2.0341389179229736 -0.9463181495666504
O -0.467215895652771 2.7410287857055664 0.627672553062439
N -2.7728707790374756 1.5365173816680908 -0.02925296127796173
C -2.6305553913116455 -0.8881334662437439 -0.37837985157966614
C -0.2185279279947281 -2.3058438301086426 -0.3678918778896332
H 2.809285879135132 -3.744889259338379 2.18900203704834
H 1.1264657974243164 -1.023589015007019 3.4339914321899414
H 3.601534605026245 -1.3979249000549316 -1.915029525756836
H 3.272571086883545 3.116271734237671 -0.3333665728569031
H 1.2024893760681152 2.539943218231201 -2.9098381996154785
H -4.369764804840088 -1.9550161361694336 -0.7929102182388306
H -0.2831376791000366 -4.089858531951904 -1.374964714050293
