13
Generated by QM7 dataset
C 2.0609352588653564 -0.1930166333913803 0.4926894009113312
C 4.504672527313232 0.027287645265460014 -0.08927066624164581
C 6.072597026824951 2.4095330238342285 -0.23578113317489624
N 8.505657196044922 1.4125136137008667 -0.9719995260238647
C 8.447208404541016 -1.1904518604278564 -1.2188355922698975
S 10.847046852111816 -3.000166893005371 -2.0195882320404053
N 6.023577690124512 -1.9815857410430908 -0.6772022843360901
H 1.1252752542495728 -2.0159976482391357 0.5347546935081482
H 0.9314271211624146 1.4581882953643799 0.9407623410224915
H 6.264763355255127 3.3503711223602295 1.5925099849700928
H 5.413933277130127 3.712385892868042 -1.6962181329727173
H 10.08682918548584 2.4413750171661377 -1.2739399671554565
H 5.4841742515563965 -3.8124847412109375 -0.7299256324768066
