16
Generated by QM7 dataset
C 3.625364065170288 0.4260198473930359 -1.478257179260254
O 6.082386016845703 0.8736581802368164 -0.49202799797058105
C 6.882287979125977 3.347895622253418 -0.2049407958984375
C 5.419488906860352 5.379842281341553 -0.6697567105293274
C 9.501675605773926 3.628330945968628 0.7215541005134583
C 11.608965873718262 2.3534839153289795 -0.7122755646705627
N 11.304001808166504 5.088465690612793 -0.7915873527526855
H 3.3693060874938965 -1.619627594947815 -1.6428900957107544
H 3.419062614440918 1.243061900138855 -3.3686068058013916
H 2.1711442470550537 1.1447961330413818 -0.19343236088752747
H 3.4904563426971436 5.266326427459717 -1.3353939056396484
H 6.179858207702637 7.26737642288208 -0.40279513597488403
H 9.68295669555664 3.777505874633789 2.7585089206695557
H 11.15973949432373 1.3479416370391846 -2.436537265777588
H 13.201268196105957 1.626449465751648 0.3431742787361145
H 12.584517478942871 5.958930015563965 0.35644015669822693
