12
Generated by QM7 dataset
C 1.8201086521148682 -1.967696189880371 -0.13139265775680542
C -0.9016072154045105 -2.838123083114624 -0.05353594198822975
C -2.4428677558898926 -0.8192718625068665 -0.008843918330967426
C -1.079562783241272 1.602431058883667 -0.07114818692207336
O 0.6611207127571106 2.2263808250427246 -2.06072735786438
C 1.6911537647247314 0.8797997832298279 0.03819136694073677
H 2.856642246246338 -2.74049973487854 1.4821689128875732
H 2.7379486560821533 -2.568289041519165 -1.88265860080719
H -1.4905214309692383 -4.791910648345947 -0.05487764626741409
H -4.484206676483154 -0.9210525155067444 0.026078220456838608
H -1.7524564266204834 3.098130464553833 1.1502007246017456
H 2.962202310562134 1.7962602376937866 1.339040994644165
