17
Generated by QM7 dataset
C 1.8144583702087402 0.020371247082948685 -0.09431622922420502
C 4.690715789794922 -0.026210501790046692 -0.014872144907712936
O 5.639547348022461 0.23837006092071533 -2.5084035396575928
C 5.756011486053467 -2.4314727783203125 1.2185899019241333
C 6.426731586456299 -1.6971063613891602 3.933105945587158
C 6.708603382110596 1.1067748069763184 3.7776758670806885
C 5.755104064941406 2.020287275314331 1.6229723691940308
H 0.9814481735229492 -0.17776653170585632 1.788795828819275
H 1.0953419208526611 -1.5094565153121948 -1.2894923686981201
H 1.1276941299438477 1.788228988647461 -0.9264571070671082
H 7.452853202819824 0.5074859261512756 -2.375990390777588
H 7.46105432510376 -3.0766820907592773 0.22644588351249695
H 4.4195404052734375 -4.012323379516602 1.1775450706481934
H 8.1763916015625 -2.613718032836914 4.540369510650635
H 4.913401126861572 -2.1931028366088867 5.252966403961182
H 7.5146660804748535 2.24767804145813 5.270256996154785
H 5.680497646331787 4.00330924987793 1.1291491985321045
