13
Generated by QM7 dataset
C 2.0642611980438232 0.09148164093494415 0.11561344563961029
C 4.874019622802734 -0.06880492717027664 -0.03590479493141174
N 6.126870155334473 -2.167440176010132 0.10144049674272537
C 8.824907302856445 -1.3877959251403809 -0.11952517926692963
C 8.705665588378906 1.4504026174545288 -0.3625628650188446
O 10.462223052978516 2.9224236011505127 -0.5760830044746399
N 6.22054386138916 2.05619215965271 -0.29557207226753235
H 1.223389744758606 -1.7793283462524414 -0.1298241913318634
H 1.3493778705596924 1.3597524166107178 -1.3504738807678223
H 1.5255192518234253 0.840191125869751 1.9648616313934326
H 9.86119556427002 -1.920906662940979 1.585234522819519
H 9.670220375061035 -2.2188596725463867 -1.8107733726501465
H 5.57635498046875 3.8419833183288574 -0.41545629501342773
