13
Generated by QM7 dataset
C 1.7724119424819946 -0.03809687867760658 0.008239205926656723
C 4.039100646972656 -0.011791891418397427 0.004837698768824339
C 6.775216102600098 0.020541323348879814 -0.009391939267516136
C 8.068242073059082 1.9311110973358154 1.7785913944244385
N 9.990774154663086 -0.022960172966122627 2.3814706802368164
C 8.113992691040039 -1.9761055707931519 1.645970344543457
H -0.24265973269939423 -0.061510585248470306 0.014645377174019814
H 7.557562828063965 0.09493984282016754 -1.9324150085449219
H 6.954664707183838 2.5087058544158936 3.42932391166687
H 8.826098442077637 3.6289167404174805 0.8732046484947205
H 11.523039817810059 0.03471427038311958 1.2109365463256836
H 8.910663604736328 -3.5904228687286377 0.6281638741493225
H 7.015570640563965 -2.690214157104492 3.252861261367798
