15
Generated by QM7 dataset
C 1.503692865371704 -0.0960925742983818 -0.27520081400871277
C 4.2272419929504395 -0.7568731307983398 -0.006349479779601097
C 5.754952907562256 -1.5771654844284058 -2.259432077407837
C 6.2112650871276855 0.9754577279090881 -1.0864224433898926
O 8.5022554397583 1.1986911296844482 0.36730608344078064
C 8.691115379333496 3.2504422664642334 1.8974173069000244
O 7.136323928833008 4.938591480255127 2.1419289112091064
H 0.9769695401191711 1.3228082656860352 1.1334388256072998
H 0.33287525177001953 -1.7722985744476318 0.02927185781300068
H 1.0670905113220215 0.662708044052124 -2.148996591567993
H 4.617035388946533 -1.6494286060333252 1.7957878112792969
H 4.849944114685059 -1.6322320699691772 -4.096094608306885
H 7.169016361236572 -3.0331804752349854 -1.9821337461471558
H 5.598483562469482 2.61035418510437 -2.1680450439453125
H 10.504949569702148 3.168220281600952 2.9117467403411865
