17
Generated by QM7 dataset
C 2.258392810821533 -0.05714531987905502 -0.3333665728569031
C 4.38252067565918 -1.1319081783294678 -1.9591925144195557
C 4.745536804199219 -3.9430458545684814 -1.4342832565307617
N 3.665048360824585 -0.7924566268920898 -4.61956787109375
C 5.540261268615723 -0.4219002425670624 -6.128230571746826
N 5.299548149108887 -0.07534337788820267 -8.685124397277832
O 2.864598035812378 0.6918476223945618 -9.387913703918457
H 2.0049238204956055 1.9626318216323853 -0.7089496850967407
H 2.6775341033935547 -0.2885233759880066 1.6793996095657349
H 0.45565077662467957 -0.9947896599769592 -0.7312673330307007
H 6.129213333129883 -0.1113426610827446 -1.499837875366211
H 3.0324814319610596 -5.018337726593018 -1.8768004179000854
H 5.2177228927612305 -4.267530918121338 0.5537086725234985
H 6.279729843139648 -4.7147345542907715 -2.589510679244995
H 7.533544540405273 -0.37813419103622437 -5.511594295501709
H 6.701573371887207 0.8890594840049744 -9.579891204833984
H 1.8065781593322754 0.00173854804597795 -8.022171020507812
