12
Generated by QM7 dataset
N 1.9558476209640503 0.13709962368011475 -0.344119131565094
C 4.519110202789307 -0.07184738665819168 -0.1915615350008011
C 5.9190568923950195 -2.1738085746765137 -0.09395718574523926
C 8.544623374938965 -1.291098713874817 0.06190742924809456
O 10.404643058776855 -2.6339004039764404 0.20010310411453247
C 8.552617073059082 1.4824146032333374 0.03843703120946884
C 6.119481086730957 2.127756118774414 -0.11406386643648148
H 1.004502773284912 -1.454068660736084 0.16149599850177765
H 1.2414745092391968 1.7194617986679077 0.47853535413742065
H 5.359414577484131 -4.121870517730713 -0.12264322489500046
H 10.215065956115723 2.6437268257141113 0.11531108617782593
H 5.421586513519287 4.043484687805176 -0.1991204470396042
