13
Generated by QM7 dataset
C 1.7626798152923584 0.031237173825502396 0.05053127557039261
C 4.296009063720703 0.14539553225040436 0.0219208225607872
C 6.006608009338379 -2.109179973602295 -0.025076664984226227
C 7.38831901550293 -2.2192187309265137 -2.5177388191223145
O 6.549885272979736 -3.3046019077301025 -4.391439914703369
C 5.51191520690918 2.6747560501098633 0.07218753546476364
O 7.815113544464111 2.914902448654175 0.07468197494745255
H 0.5775948166847229 1.706101417541504 0.09148164093494415
H 0.7893385887145996 -1.7774574756622314 0.014513096772134304
H 4.941728115081787 -3.8733716011047363 0.1947173774242401
H 7.393742561340332 -2.0458741188049316 1.5092675685882568
H 9.185826301574707 -1.1632964611053467 -2.608729124069214
H 4.22990608215332 4.316928386688232 0.10355699062347412
