10
Generated by QM7 dataset
O 2.1929893493652344 -0.14129482209682465 -0.7639217972755432
C 4.411509037017822 -0.07732759416103363 -0.17653821408748627
N 5.969229221343994 -2.040658473968506 0.28791868686676025
C 8.306838989257812 -1.2208576202392578 0.8885303139686584
O 10.154311180114746 -2.478545904159546 1.4129860401153564
C 8.241870880126953 1.5478557348251343 0.7992785573005676
C 5.900631904602051 2.235205888748169 0.15913383662700653
H 5.456716537475586 -3.8684773445129395 0.19949838519096375
H 9.8507080078125 2.723907947540283 1.1964612007141113
H 5.1451005935668945 4.105203151702881 -0.09013993293046951
