20
Generated by QM7 dataset
C 1.796751618385315 -0.00602822657674551 0.05425403639674187
C 4.65906286239624 -0.017687836661934853 -0.01366272009909153
C 6.028188705444336 1.9081698656082153 1.7081234455108643
N 7.87286376953125 -0.08148498833179474 2.425973653793335
C 10.119898796081543 0.10552230477333069 0.8281157612800598
C 6.022141456604004 -2.039997100830078 1.6122575998306274
C 7.0465240478515625 -4.37346887588501 0.29470279812812805
H 1.0413525104522705 -1.6356335878372192 -0.9699586033821106
H 1.0571694374084473 1.7061203718185425 -0.8394163250923157
H 1.0755943059921265 -0.07791341096162796 1.9917713403701782
H 5.340177059173584 0.05234541371464729 -1.9751795530319214
H 4.900928974151611 2.5654165744781494 3.320664644241333
H 6.7872724533081055 3.578706741333008 0.7488417625427246
H 11.367363929748535 -1.513292670249939 1.154131293296814
H 11.199405670166016 1.7957311868667603 1.347525954246521
H 9.717671394348145 0.22313886880874634 -1.2004674673080444
H 4.863928318023682 -2.658693552017212 3.226877450942993
H 8.073382377624512 -3.928494930267334 -1.444998025894165
H 5.4871978759765625 -5.631591796875 -0.22965840995311737
H 8.30593204498291 -5.436609745025635 1.5469108819961548
