19
Generated by QM7 dataset
C 8.612407684326172 -5.22804069519043 -0.8369786143302917
C 7.0434441566467285 -3.2925643920898438 0.5314854979515076
C 5.056661605834961 -3.9672720432281494 1.9592303037643433
C 7.774352073669434 -0.5508362650871277 0.16574788093566895
C 10.357683181762695 0.08101256191730499 1.2174183130264282
C 10.684077262878418 -0.14660495519638062 4.031579494476318
C 12.255403518676758 0.8658158183097839 -0.27612677216529846
H 8.630587577819824 -4.834864139556885 -2.8675460815429688
H 7.874753475189209 -7.1441850662231445 -0.5770089626312256
H 10.561868667602539 -5.214680194854736 -0.14382705092430115
H 4.523815155029297 -5.934741497039795 2.2001702785491943
H 3.906933307647705 -2.5711991786956787 2.930530548095703
H 6.385063171386719 0.7031670808792114 1.0599663257598877
H 7.68294620513916 -0.12033776193857193 -1.8625707626342773
H 9.280709266662598 1.013176679611206 5.014577388763428
H 12.557513236999512 0.48386436700820923 4.646496295928955
H 10.460201263427734 -2.1113154888153076 4.638937473297119
H 12.016995429992676 1.0539947748184204 -2.306051731109619
H 14.099813461303711 1.3394945859909058 0.48785170912742615
