11
Generated by QM7 dataset
O 1.937762975692749 0.07254658639431 -0.31760627031326294
C 4.630112648010254 0.0683702901005745 0.021202728152275085
C 6.076017379760742 -1.3489242792129517 -1.9631608724594116
C 6.130441665649414 1.499119758605957 -1.9338512420654297
C 8.390893936157227 2.777160406112671 -1.1591579914093018
N 10.215576171875 3.8050012588500977 -0.5133818984031677
H 1.0851752758026123 0.94796222448349 1.0587190389633179
H 5.350892066955566 -0.0362827405333519 1.9410511255264282
H 5.011043548583984 -2.2713563442230225 -3.4505455493927
H 7.744229793548584 -2.3815083503723145 -1.3726593255996704
H 5.063162326812744 2.4500110149383545 -3.403491258621216
