9
Generated by QM7 dataset
S -0.9779521822929382 -2.400178909301758 -0.005272335838526487
C -2.4621431827545166 0.47424566745758057 -0.03607487305998802
C -0.7673233151435852 2.449481964111328 -0.06793565303087234
C 1.7857345342636108 1.5900722742080688 -0.06700968742370605
C 1.9408810138702393 -1.008452296257019 -0.03448750078678131
H -4.503236293792725 0.573834240436554 -0.029328549280762672
H -1.3319168090820312 4.417026996612549 -0.09080134332180023
H 3.425978899002075 2.8152194023132324 -0.08908168971538544
H 3.6267435550689697 -2.16294264793396 -0.02639947459101677
