15
Generated by QM7 dataset
C 5.797811985015869 0.5015144348144531 4.720611572265625
N 4.795179843902588 2.305654764175415 2.8859519958496094
N 5.821093559265137 1.834205985069275 0.4662332236766815
C 7.800373554229736 3.3060948848724365 -0.4071792960166931
O 8.830349922180176 4.970924377441406 0.8354101181030273
C 8.555791854858398 2.6616413593292236 -3.033463954925537
C 10.463035583496094 3.8920798301696777 -4.1584367752075195
H 4.9739670753479 0.8777210712432861 6.578930377960205
H 7.8549113273620605 0.654638946056366 4.886094570159912
H 5.309072017669678 -1.4384784698486328 4.193434715270996
H 5.393977642059326 4.080731391906738 3.414886236190796
H 4.922112941741943 0.5785963535308838 -0.6728559136390686
H 7.54282283782959 1.1835354566574097 -4.015535831451416
H 11.497830390930176 5.379634380340576 -3.1926355361938477
H 11.028290748596191 3.4329898357391357 -6.07433557510376
