16
Generated by QM7 dataset
C 2.429431915283203 -0.681794285774231 0.29542088508605957
C 5.291667938232422 -0.7002379894256592 0.05708862468600273
C 6.374367713928223 1.9725717306137085 0.08643607050180435
C 9.233485221862793 2.0023159980773926 -0.15503312647342682
C 10.461599349975586 4.5705671310424805 -0.20135031640529633
O 10.507784843444824 0.06340031325817108 -0.29886019229888916
H 1.6969174146652222 -2.6157212257385254 0.27281975746154785
H 1.5616885423660278 0.3515835404396057 -1.2722581624984741
H 1.838760256767273 0.20773759484291077 2.0669445991516113
H 5.825194358825684 -1.6591039896011353 -1.7009235620498657
H 6.099677085876465 -1.8074663877487183 1.611312747001648
H 5.876179218292236 2.9177560806274414 1.8600574731826782
H 5.591019153594971 3.066685438156128 -1.4872334003448486
H 9.754067420959473 5.647125244140625 -1.8152520656585693
H 12.5091552734375 4.361053466796875 -0.3852773606777191
H 10.047730445861816 5.567530155181885 1.559061884880066
