14
Generated by QM7 dataset
O 0.6021234393119812 0.15730080008506775 0.7012395858764648
C 3.091686487197876 -0.7008994221687317 0.15988972783088684
C 4.883411407470703 1.5363284349441528 -0.12695179879665375
O 7.355248928070068 0.5954905152320862 -0.6673189997673035
C 9.234940528869629 2.3330180644989014 -0.9864370226860046
C 9.112504959106445 4.854517459869385 -0.8669118881225586
H -0.4521358609199524 -1.3400993347167969 0.8656457662582397
H 3.054232120513916 -1.823434591293335 -1.5792819261550903
H 3.7250280380249023 -1.9407864809036255 1.6919852495193481
H 4.8903279304504395 2.636753797531128 1.6294353008270264
H 4.215695381164551 2.755220651626587 -1.6651133298873901
H 10.994067192077637 1.3571823835372925 -1.3824858665466309
H 7.3833112716674805 5.876972675323486 -0.4756629765033722
H 10.804357528686523 5.976391315460205 -1.1704585552215576
