16
Generated by QM7 dataset
N 4.369764804840088 -0.8031525015830994 -2.821436643600464
C 4.539632320404053 0.2478564828634262 -0.2588357925415039
C 6.350897312164307 2.519439458847046 -0.02834589220583439
O 6.546691417694092 3.239009380340576 2.601529359817505
C 6.053152084350586 5.903712272644043 2.817392587661743
C 5.3085618019104 6.755241870880127 0.25938379764556885
C 5.468810558319092 4.836205959320068 -1.3592233657836914
H 3.175287961959839 -2.314668893814087 -2.793147563934326
H 6.0923638343811035 -1.4933749437332153 -3.339183807373047
H 5.156949043273926 -1.2440823316574097 1.040596604347229
H 2.642479658126831 0.7972943782806396 0.37070757150650024
H 8.246878623962402 1.9929051399230957 -0.6758983731269836
H 7.768531799316406 6.8515801429748535 3.4735054969787598
H 4.538895606994629 6.185791969299316 4.194568634033203
H 4.729190826416016 8.654831886291504 -0.20342901349067688
H 5.042979717254639 4.908809185028076 -3.3542072772979736
