12
Generated by QM7 dataset
O 1.7660247087478638 -0.004251883830875158 -0.016383925452828407
C 4.29950475692749 -0.04325583204627037 -0.0032881235238164663
C 5.830598831176758 2.047593832015991 0.009184069000184536
N 8.290833473205566 1.1895825862884521 0.02014448121190071
C 8.31562614440918 -1.408450722694397 0.014664274640381336
C 5.8478899002075195 -2.191250801086426 0.00011338356853229925
O 5.126468181610107 -4.614295482635498 -0.008881713263690472
H 1.1742758750915527 1.735108733177185 -0.015665829181671143
H 5.434134483337402 4.0516486167907715 0.011451740749180317
H 9.848194122314453 2.2993431091308594 0.030651357024908066
H 10.068952560424805 -2.4546220302581787 0.021542878821492195
H 3.284022808074951 -4.648707389831543 -0.01855711080133915
