17
Generated by QM7 dataset
C 4.234233856201172 1.1803796291351318 3.8786251544952393
C 4.303435325622559 1.7388125658035278 1.067298412322998
O 5.7116594314575195 4.008468151092529 0.5983061790466309
C 8.26176929473877 3.719529151916504 0.3687233626842499
O 9.398004531860352 1.7138115167617798 0.5306540131568909
C 9.456548690795898 6.265349388122559 -0.11361033469438553
C 12.315874099731445 6.098486423492432 -0.291887104511261
H 3.052021026611328 -0.46920010447502136 4.269949436187744
H 3.4865825176239014 2.8022749423980713 4.924191474914551
H 6.1347880363464355 0.8175144195556641 4.6107048988342285
H 2.380922555923462 2.0680973529815674 0.37730270624160767
H 5.069549560546875 0.14203181862831116 -0.0062171989120543
H 8.942939758300781 7.53452730178833 1.4385162591934204
H 8.698787689208984 7.019330978393555 -1.8855119943618774
H 13.12620735168457 5.34180212020874 1.4553347826004028
H 13.127435684204102 7.971167087554932 -0.6238552927970886
H 12.89208984375 4.858675003051758 -1.8451097011566162
