10
Generated by QM7 dataset
C 3.737746000289917 0.9118306636810303 0.9802009463310242
O 2.9791531562805176 1.265814185142517 -1.6260148286819458
C 5.274679183959961 2.2199368476867676 -2.2016632556915283
N 5.642967700958252 4.415363788604736 -3.3515048027038574
O 7.068369388580322 5.800665378570557 -1.5745576620101929
C 7.186099529266357 4.464118957519531 0.6489319801330566
C 6.1097493171691895 2.157613754272461 0.26541203260421753
H 3.8805525302886963 -1.0957199335098267 1.4535773992538452
H 2.5354833602905273 1.9027085304260254 2.3371376991271973
H 7.903722763061523 5.499575614929199 2.2540464401245117
