14
Generated by QM7 dataset
C 1.934720516204834 0.4300449788570404 -0.17657600343227386
C 4.7772088050842285 0.17236192524433136 0.15414495766162872
C 6.133635520935059 2.714723825454712 0.043558187782764435
O 5.3509674072265625 4.297237396240234 2.0526962280273438
C 7.530672073364258 4.712296485900879 3.2845897674560547
N 9.551148414611816 3.683661937713623 2.4344396591186523
O 8.795257568359375 2.311607599258423 0.2833833396434784
H 1.039878487586975 -1.4339619874954224 -0.13182729482650757
H 1.479598879814148 1.3166477680206299 -1.9887666702270508
H 1.1029576063156128 1.5712883472442627 1.3339954614639282
H 5.541829586029053 -1.0863279104232788 -1.3034007549285889
H 5.157516002655029 -0.7430214285850525 1.9754630327224731
H 5.772830009460449 3.672663927078247 -1.7563492059707642
H 7.353793621063232 5.9319071769714355 4.951895236968994
