17
Generated by QM7 dataset
C 1.7909690141677856 -0.17183279991149902 -0.1956811398267746
C 4.6716485023498535 -0.022374358028173447 0.14324124157428741
C 5.423608303070068 -1.4855326414108276 2.537996768951416
N 5.89734411239624 -1.2524726390838623 -2.0167157649993896
C 5.475046634674072 2.7224528789520264 0.133131206035614
C 6.604498386383057 4.023359298706055 1.992413878440857
H 1.1680208444595337 0.7810993790626526 -1.9289190769195557
H 0.8055902719497681 0.7250311970710754 1.3926904201507568
H 1.1419236660003662 -2.137544870376587 -0.300220787525177
H 4.532243728637695 -0.6798856854438782 4.226995944976807
H 7.475246429443359 -1.4715675115585327 2.8344380855560303
H 4.830612659454346 -3.4691781997680664 2.4277689456939697
H 5.203039646148682 -0.5246257781982422 -3.656298875808716
H 5.442278861999512 -3.1218464374542236 -2.037729501724243
H 5.078676700592041 3.752882719039917 -1.6064939498901367
H 7.093767166137695 3.1774423122406006 3.7930960655212402
H 7.09102725982666 5.999200344085693 1.7289104461669922
