15
Generated by QM7 dataset
C 2.0231785774230957 -0.027193158864974976 0.12290778756141663
N 4.776226043701172 0.014872144907712936 -0.022714508697390556
C 5.833584785461426 1.9334733486175537 1.7321040630340576
C 7.888491630554199 -0.013152494095265865 2.4167139530181885
C 5.896304607391357 -2.0045459270477295 1.620251178741455
C 6.855945110321045 -4.140560150146484 0.18825452029705048
N 7.622985363006592 -5.883227825164795 -0.9006812572479248
H 1.287168025970459 -1.6594818830490112 -0.9152510762214661
H 1.246841311454773 1.6700077056884766 -0.7719908952713013
H 1.2911365032196045 -0.11869370192289352 2.059234619140625
H 4.6277313232421875 2.4625778198242188 3.3346107006073
H 6.521388053894043 3.654919385910034 0.817873477935791
H 9.574448585510254 0.09146274626255035 1.2141867876052856
H 8.47134017944336 -0.04763999581336975 4.398224353790283
H 4.701034069061279 -2.5896806716918945 3.2152934074401855
