12
Generated by QM7 dataset
C 1.9291647672653198 -0.2133878767490387 0.3088757395744324
C 4.181775093078613 -0.004044014029204845 0.11582131683826447
C 6.886313438415527 0.25159814953804016 -0.1357768177986145
C 8.173008918762207 2.1691410541534424 1.6125410795211792
C 9.850292205810547 -0.05094701796770096 2.368507146835327
O 8.170722007751465 -1.8228676319122314 1.1299617290496826
H -0.06723645329475403 -0.414851576089859 0.4797258675098419
H 7.517916202545166 0.3717469274997711 -2.106874465942383
H 7.011828899383545 2.913050651550293 3.1536316871643066
H 9.144932746887207 3.721853494644165 0.6591553688049316
H 11.731136322021484 -0.08035115152597427 1.50968337059021
H 9.991378784179688 -0.40528956055641174 4.3983941078186035
