15
Generated by QM7 dataset
C 13.477867126464844 -0.2861423194408417 2.1407196521759033
N 11.657096862792969 1.7345795631408691 1.685862421989441
N 9.80626106262207 1.1732364892959595 -0.0004724315367639065
C 8.288093566894531 3.0314042568206787 -0.455480694770813
O 6.254634380340576 2.94258713722229 -2.0447025299072266
C 5.85023307800293 0.6811140179634094 -3.3400909900665283
C 3.5589213371276855 0.010733644478023052 -4.148629188537598
H 14.922676086425781 0.3599739372730255 3.470104217529297
H 14.424336433410645 -0.8288338780403137 0.3838978707790375
H 12.548933982849121 -1.9504430294036865 2.943418502807617
H 10.922919273376465 2.290064573287964 3.3874664306640625
H 8.41967487335205 4.931977272033691 0.3921181857585907
H 7.538760185241699 -0.4267946481704712 -3.670471668243408
H 1.9232498407363892 1.1929841041564941 -3.7923402786254883
H 3.282529830932617 -1.7413825988769531 -5.174750328063965
