15
Generated by QM7 dataset
C 2.876295566558838 -1.0608922243118286 0.7716696858406067
O 5.472684860229492 -0.3786066174507141 0.6667142510414124
C 5.787985324859619 2.2273824214935303 -0.03987322002649307
C 8.61991024017334 2.851672410964966 -0.209173783659935
O 9.830469131469727 2.105797529220581 2.08272385597229
C 9.844679832458496 1.5602524280548096 -2.34692645072937
C 10.851015090942383 0.49954909086227417 -4.082205295562744
H 2.7487199306488037 -3.0533061027526855 1.3026827573776245
H 1.9873871803283691 -0.8128467798233032 -1.078787922859192
H 1.8892537355422974 0.0682758018374443 2.1948978900909424
H 4.921961784362793 3.392171859741211 1.4385350942611694
H 4.8400044441223145 2.592137336730957 -1.8454875946044922
H 8.859452247619629 4.8968095779418945 -0.4141712784767151
H 9.25941276550293 0.3703863322734833 2.354466438293457
H 11.753718376159668 -0.4547436833381653 -5.60880184173584
