18
Generated by QM7 dataset
C 1.3819000720977783 2.3869130611419678 -0.4197459816932678
C -1.3753427267074585 2.3829445838928223 0.42875996232032776
C -2.752291679382324 0.002702308353036642 -0.44134554266929626
C -1.377270221710205 -2.387820243835449 0.4015856981277466
C 1.3796323537826538 -2.3848910331726074 -0.4467501640319824
C 2.7577528953552246 -0.00489439070224762 0.4216734766960144
H 1.4651424884796143 2.5393762588500977 -2.485707998275757
H 2.344942331314087 4.052007675170898 0.3474450409412384
H -2.337062120437622 4.057638645172119 -0.31904247403144836
H -1.4590953588485718 2.5106146335601807 2.496309280395508
H -4.681569576263428 -0.0007180959219112992 0.3102930188179016
H -2.908590793609619 0.014550890773534775 -2.5083091259002686
H -1.4613819122314453 -2.5393762588500977 2.467642068862915
H -2.3405392169952393 -4.053273677825928 -0.36539745330810547
H 2.341559648513794 -4.059679985046387 0.30154359340667725
H 1.4635173082351685 -2.513808250427246 -2.514091730117798
H 2.911085367202759 -0.016478411853313446 2.4870119094848633
H 4.686407566070557 -0.0010393493575975299 -0.33166584372520447
