16
Generated by QM7 dataset
C 1.29495370388031 0.033448152244091034 -1.0449429750442505
C 4.139256000518799 -0.2849518060684204 -0.9158746600151062
O 5.213074207305908 2.0432097911834717 -0.08928956091403961
C 7.883710861206055 1.8735690116882324 0.17238081991672516
O 8.628602981567383 0.26348450779914856 2.193934202194214
C 7.938852787017822 1.2844090461730957 4.580809593200684
H 0.3843702971935272 -1.7170240879058838 -1.6584614515304565
H 0.7895842790603638 1.5474210977554321 -2.3611183166503906
H 0.5392522215843201 0.566672146320343 0.8060249090194702
H 4.8790082931518555 -0.7701956629753113 -2.787799596786499
H 4.60505485534668 -1.8024019002914429 0.41281068325042725
H 8.636369705200195 3.778261661529541 0.4779684245586395
H 8.720651626586914 1.1585344076156616 -1.581284999847412
H 8.56045913696289 -0.029744289815425873 6.048824310302734
H 5.887914180755615 1.5000834465026855 4.728056907653809
H 8.872113227844238 3.1032893657684326 4.890195369720459
