18
Generated by QM7 dataset
N 1.404879093170166 0.01821696013212204 -0.027306541800498962
C 4.1343994140625 0.047091975808143616 0.3558354377746582
C 5.831279277801514 -1.6005035638809204 -1.2182875871658325
C 5.03358793258667 -2.79074764251709 -3.671170949935913
C 5.533080101013184 -0.7353491187095642 -5.646728515625
C 5.0678486824035645 1.760034203529358 -4.256740570068359
C 5.8524627685546875 1.2179285287857056 -1.5810394287109375
H 0.6112886071205139 1.6546252965927124 0.6068099737167358
H 0.5910118222236633 -1.4049736261367798 0.9833378791809082
H 4.697783470153809 0.295156329870224 2.320451498031616
H 7.46196174621582 -2.4814560413360596 -0.3576873540878296
H 6.130441665649414 -4.494165420532227 -4.084624290466309
H 3.0320467948913574 -3.3117260932922363 -3.6376471519470215
H 7.5187668800354 -0.8267740607261658 -6.239932537078857
H 4.355837821960449 -0.9436158537864685 -7.333006858825684
H 6.189155578613281 3.2867062091827393 -5.0856122970581055
H 3.0743765830993652 2.302253246307373 -4.360013961791992
H 7.497280597686768 2.2639107704162598 -0.9678988456726074
