14
Generated by QM7 dataset
N 1.8658021688461304 0.7727468013763428 -2.0450615882873535
C 4.002704620361328 0.507164716720581 -1.6408302783966064
C 6.619295120239258 0.1744973063468933 -1.145060658454895
C 8.18576431274414 2.131554365158081 -0.7566085457801819
C 10.89627456665039 1.9354952573776245 -0.22068221867084503
C 12.649392127990723 1.0004966259002686 -2.2588086128234863
C 12.674657821655273 3.738520860671997 -1.5200201272964478
H 7.323992729187012 -1.748487949371338 -1.0944538116455078
H 7.413924694061279 4.041670799255371 -0.8060626983642578
H 11.348410606384277 1.4294644594192505 1.7174019813537598
H 11.887228012084961 0.5205817818641663 -4.099458694458008
H 14.24246883392334 -0.15818896889686584 -1.693799376487732
H 14.283759117126465 4.429536819458008 -0.4554240107536316
H 11.926609992980957 5.094437122344971 -2.8622169494628906
