11
Generated by QM7 dataset
C 0.000869274022988975 2.3978545665740967 0.016742972657084465
C 2.201096296310425 0.6106082797050476 0.0077667743898928165
C 1.3624358177185059 -1.7836557626724243 -0.004932185169309378
C -1.362870454788208 -1.78106689453125 -0.005366822239011526
C -2.200472593307495 0.6095500588417053 0.007010884117335081
H 0.00018897261179517955 3.5948827266693115 -1.6691950559616089
H -0.0003590479609556496 3.5771570205688477 1.7151343822479248
H 4.158342361450195 1.1831386089324951 0.011073795147240162
H 2.5094239711761475 -3.4688947200775146 -0.013549336232244968
H -2.5112380981445312 -3.465909004211426 -0.014399712905287743
H -4.157341003417969 1.1829307079315186 0.009713192470371723
