9
Generated by QM7 dataset
O -0.6739897131919861 -2.0502772331237793 -0.008069130592048168
C -2.1516611576080322 0.047621097415685654 -0.0041196029633283615
C -0.6836462020874023 2.191364288330078 0.0020409042481333017
C 1.8580164909362793 1.3550469875335693 0.001851931563578546
C 1.7622829675674438 -1.2438366413116455 -0.0044030616991221905
H -4.166184902191162 -0.2916414439678192 -0.006349479779601097
H -1.363229513168335 4.118393421173096 0.00616050697863102
H 3.550417423248291 2.4969141483306885 0.005782561842352152
H 3.1792373657226562 -2.7142324447631836 -0.00689750025048852
