13
Generated by QM7 dataset
O 3.9797821044921875 -0.7817608118057251 2.8855173587799072
N 4.943259239196777 0.42790958285331726 0.7286595106124878
C 5.29108190536499 -1.2215189933776855 -1.4466042518615723
C 7.573795795440674 -2.7884232997894287 -1.1731419563293457
C 9.44778060913086 -4.050628185272217 -0.9550297856330872
C 6.474598407745361 2.443075656890869 1.2533797025680542
N 6.521841526031494 3.692657232284546 3.3428688049316406
H 5.495096683502197 -1.4421067237854004 3.7134251594543457
H 5.420811653137207 -0.07594809681177139 -3.167029857635498
H 3.62502384185791 -2.432814598083496 -1.6637338399887085
H 11.11854362487793 -5.160577297210693 -0.7640918493270874
H 7.7565507888793945 2.961975574493408 -0.3071749806404114
H 5.128660202026367 2.9322690963745117 4.4642510414123535
