17
Generated by QM7 dataset
C 2.440694570541382 -1.075632095336914 -0.06976868957281113
C 5.264946937561035 -0.5725870132446289 -0.059242915362119675
C 5.885930061340332 2.2300658226013184 0.028780529275536537
O 4.24332332611084 3.8692710399627686 0.21055328845977783
C 8.674750328063965 2.922178030014038 -0.00563138397410512
C 9.61864948272705 3.1815052032470703 2.6517393589019775
C 11.454556465148926 1.763265609741211 3.662402629852295
H 2.0714612007141113 -3.1085426807403564 -0.15110249817371368
H 1.5339285135269165 -0.1872529685497284 -1.7038904428482056
H 1.5455503463745117 -0.32401242852211 1.6375988721847534
H 6.109560012817383 -1.3668389320373535 -1.773281216621399
H 6.1248860359191895 -1.4829248189926147 1.587653398513794
H 8.889933586120605 4.716907501220703 -1.0135735273361206
H 9.719843864440918 1.4949623346328735 -1.0796194076538086
H 8.732669830322266 4.641469955444336 3.802015542984009
H 12.40926456451416 0.293587863445282 2.5952553749084473
H 12.054015159606934 2.059555768966675 5.603963851928711
