15
Generated by QM7 dataset
O 4.153183460235596 -2.476334810256958 -1.5817196369171143
C 6.400710105895996 -1.39295494556427 -0.5995345115661621
C 5.747167587280273 1.159668207168579 0.39854323863983154
C 7.060262680053711 3.272193193435669 -0.1079411581158638
C 6.409308433532715 5.829975128173828 0.9199565052986145
C 8.47761344909668 6.8859543800354 2.6030032634735107
O 10.567273139953613 5.936555862426758 2.9298880100250244
H 4.597193241119385 -4.159948825836182 -2.1645867824554443
H 7.812808036804199 -1.3085975646972656 -2.1089720726013184
H 7.103216171264648 -2.596219062805176 0.9282335042953491
H 4.097738742828369 1.240397334098816 1.620421290397644
H 8.723485946655273 3.1747021675109863 -1.315570592880249
H 4.669456481933594 5.772848606109619 2.0401105880737305
H 6.122278213500977 7.159038543701172 -0.6392943263053894
H 7.997434616088867 8.692815780639648 3.52998948097229
