16
Generated by QM7 dataset
C 2.9242000579833984 -0.2666781544685364 -0.8791006207466125
O 5.597973346710205 -0.24611793458461761 -0.5950180888175964
N 6.388653755187988 2.2695422172546387 -0.3163023591041565
C 8.815629005432129 2.3000612258911133 -0.1029333844780922
C 10.062810897827148 4.778380393981934 0.18906709551811218
C 10.099320411682129 6.054738998413086 2.7383265495300293
C 12.495209693908691 4.9857401847839355 1.6626566648483276
H 2.3115508556365967 -2.2209384441375732 -1.1470259428024292
H 2.3704912662506104 0.8377912044525146 -2.537694215774536
H 2.019096851348877 0.4906674027442932 0.818421483039856
H 9.99976921081543 0.5837931036949158 -0.14560340344905853
H 9.86818790435791 6.001675605773926 -1.4468309879302979
H 9.228344917297363 5.086575984954834 4.320499897003174
H 9.880791664123535 8.09088134765625 2.7841525077819824
H 13.913146018981934 6.300176620483398 0.9846795797348022
H 13.267125129699707 3.304318428039551 2.5426266193389893
