14
Generated by QM7 dataset
C 3.1237173080444336 0.1391972303390503 -2.6862080097198486
C 4.435659885406494 -0.30895131826400757 -0.5695634484291077
C 5.899592876434326 1.66074800491333 0.8664772510528564
C 8.672161102294922 1.1234421730041504 1.0241937637329102
C 10.547581672668457 2.4621052742004395 -0.6481004953384399
O 10.156521797180176 3.2053346633911133 1.930355191230774
H 2.0889599323272705 -1.3668955564498901 -3.6150460243225098
H 3.041740894317627 2.0053017139434814 -3.5330698490142822
H 4.439684867858887 -2.209429979324341 0.2133311778306961
H 5.137258052825928 1.7408345937728882 2.7937333583831787
H 5.57775354385376 3.5374350547790527 0.04028896242380142
H 9.120196342468262 -0.7326657176017761 1.7544784545898438
H 9.858588218688965 3.7197179794311523 -2.1082162857055664
H 12.300926208496094 1.5084360837936401 -1.0973451137542725
