16
Generated by QM7 dataset
C 2.3678834438323975 -0.41606101393699646 -0.5368523001670837
O 5.035609722137451 -0.12128262221813202 -0.4816722869873047
C 5.739967346191406 2.4039206504821777 0.13424614071846008
C 8.560345649719238 2.547086238861084 0.18154598772525787
C 10.018080711364746 3.39937162399292 -2.1125059127807617
C 9.87553882598877 5.07385778427124 0.17995862662792206
H 1.939652681350708 -2.3992340564727783 -0.9261358976364136
H 1.5461927652359009 0.7441741228103638 -2.037994146347046
H 1.5394654273986816 0.09010214358568192 1.2890955209732056
H 4.999440670013428 2.890770673751831 2.0060577392578125
H 4.9421820640563965 3.7109875679016113 -1.261807918548584
H 9.372588157653809 1.0624228715896606 1.3372646570205688
H 8.97604751586914 3.9612438678741455 -3.784630060195923
H 11.794178009033203 2.459667444229126 -2.513845920562744
H 11.56051254272461 5.271372318267822 1.3286097049713135
H 8.742269515991211 6.774932861328125 0.055614639073610306
