16
Generated by QM7 dataset
C 1.8762524127960205 -0.033089105039834976 -0.08002990484237671
C 4.755136966705322 0.050058845430612564 -0.07696854323148727
O 5.686091423034668 -2.0836498737335205 -1.4764430522918701
N 6.218124866485596 -1.2719179391860962 -3.9732625484466553
C 6.266199588775635 1.1610288619995117 -3.9267563819885254
C 5.8213582038879395 2.3463973999023438 -1.423606276512146
C 8.326114654541016 3.2413716316223145 -0.33686259388923645
H 1.0854586362838745 1.5607059001922607 0.9741727113723755
H 1.2101994752883911 -1.7925941944122314 0.7840662598609924
H 1.1162422895431519 0.003741657827049494 -2.005811929702759
H 5.43558931350708 -0.0952988862991333 1.8727753162384033
H 6.671658992767334 2.3255159854888916 -5.598634719848633
H 4.486814498901367 3.9166274070739746 -1.5611217021942139
H 9.72965145111084 1.7191027402877808 -0.2724985182285309
H 8.07105827331543 3.962547779083252 1.585574746131897
H 9.120895385742188 4.762582302093506 -1.4953969717025757
