19
Generated by QM7 dataset
C 5.0432820320129395 -2.8371970653533936 -0.684477686882019
C 3.7584762573242188 -0.3187400996685028 -0.09839803725481033
N 1.9322638511657715 -0.6230049133300781 1.9607231616973877
C 5.6650776863098145 1.7542895078659058 0.5406506657600403
C 7.159152030944824 1.456185221672058 2.9567031860351562
C 6.968440532684326 3.085336923599243 -1.6441373825073242
N 4.993147850036621 4.358520984649658 -0.22584116458892822
H 6.427903652191162 -2.6162123680114746 -2.206028461456299
H 3.6551461219787598 -4.248727798461914 -1.2906640768051147
H 6.040207386016846 -3.601496696472168 0.960056483745575
H 2.68900465965271 0.24776199460029602 -1.7832022905349731
H 2.7810721397399902 -1.4551646709442139 3.471710443496704
H 0.5422191023826599 -1.8284989595413208 1.3958840370178223
H 8.537178039550781 2.982686996459961 3.2043330669403076
H 8.213203430175781 -0.322122722864151 2.9553427696228027
H 5.913784503936768 1.4813374280929565 4.6072845458984375
H 6.483139991760254 2.5503365993499756 -3.560678720474243
H 8.872490882873535 3.79496693611145 -1.4055216312408447
H 5.702059745788574 5.633462429046631 1.0355321168899536
