15
Generated by QM7 dataset
N 4.676184177398682 -2.6304609775543213 2.1165120601654053
C 5.195102691650391 -1.2895113229751587 -0.01585480198264122
N 4.937514305114746 -2.262455701828003 -2.2324845790863037
C 6.131481170654297 1.4002304077148438 0.2149563431739807
C 9.010213851928711 1.4326202869415283 0.2185090333223343
C 9.983234405517578 4.025796890258789 0.46105536818504333
C 10.7820405960083 6.141969203948975 0.6443021297454834
H 4.3749237060546875 -1.6357280015945435 3.7276737689971924
H 3.517063856124878 -4.141127109527588 1.9319993257522583
H 4.354779243469238 -4.097171783447266 -2.0824782848358154
H 5.382847309112549 2.2402892112731934 1.9550917148590088
H 5.389801502227783 2.5068349838256836 -1.3729426860809326
H 9.735509872436523 0.5762531161308289 -1.5235350131988525
H 9.72730827331543 0.2766370177268982 1.7824463844299316
H 11.492766380310059 8.020394325256348 0.7919653058052063
