15
Generated by QM7 dataset
N 4.247461795806885 -0.8504334688186646 -2.639871835708618
C 4.507960796356201 0.08033225685358047 -0.0556524358689785
C 5.986973762512207 2.5336880683898926 -0.021542878821492195
C 4.609193325042725 4.917596340179443 -0.9229611158370972
O 5.2514543533325195 6.245053768157959 1.3900448083877563
C 6.077491760253906 3.8996388912200928 2.5321762561798096
H 3.207828998565674 -2.47395396232605 -2.631009101867676
H 5.977657318115234 -1.3419700860977173 -3.332777738571167
H 5.47710657119751 -1.3519667387008667 1.0832098722457886
H 2.6206533908843994 0.3409065902233124 0.7570242881774902
H 7.876529693603516 2.3390653133392334 -0.8550443649291992
H 2.5574231147766113 4.774393081665039 -1.145797610282898
H 5.430638313293457 5.8338303565979 -2.5835013389587402
H 7.959299564361572 4.075137615203857 3.3685879707336426
H 4.732989311218262 3.2625553607940674 3.96974778175354
