18
Generated by QM7 dataset
C 5.521231651306152 -2.090944290161133 -1.3632484674453735
C 4.519601345062256 0.1719839721918106 0.0960925742983818
C 6.413522720336914 2.2741341590881348 0.18075230717658997
C 6.71618127822876 4.206228256225586 -1.8900662660598755
N 5.182687282562256 4.1572651863098145 -4.189730644226074
C 5.53030252456665 4.945337772369385 0.5958873629570007
O 7.084545612335205 6.441604137420654 2.2395143508911133
H 4.1292405128479 -3.620393991470337 -1.364760160446167
H 7.267301082611084 -2.8068480491638184 -0.5141189098358154
H 5.93370246887207 -1.589977741241455 -3.327392101287842
H 4.094696521759033 -0.41281068325042725 2.0375404357910156
H 2.7288401126861572 0.7908315062522888 -0.7388073205947876
H 8.112481117248535 1.70256769657135 1.1801528930664062
H 8.637125968933105 4.871883869171143 -2.2100157737731934
H 3.3769783973693848 3.5914812088012695 -3.838014841079712
H 5.900386333465576 2.88126540184021 -5.443488597869873
H 3.5115835666656494 5.302023410797119 0.6324535608291626
H 7.1085638999938965 8.193285942077637 1.679229497909546
