18
Generated by QM7 dataset
C 2.0174527168273926 0.17334458231925964 -0.22225068509578705
C 4.830517768859863 0.08462193608283997 -0.13112810254096985
C 6.408174514770508 -1.275054931640625 -2.076676845550537
O 5.145875453948975 -2.3958704471588135 -4.201617240905762
C 6.525148868560791 1.5975744724273682 -1.894223690032959
C 5.424931526184082 3.1721320152282715 -4.004197597503662
N 8.805575370788574 2.7414445877075195 -0.7459316253662109
H 1.322354793548584 1.6114072799682617 1.0919404029846191
H 1.2398681640625 -1.6502978801727295 0.3675706386566162
H 1.250809669494629 0.6124791502952576 -2.0866167545318604
H 5.440143585205078 -0.14314675331115723 1.8171039819717407
H 8.043505668640137 -2.307827949523926 -1.3852258920669556
H 3.486431360244751 -1.689679741859436 -4.5243635177612305
H 3.7904882431030273 2.3092074394226074 -4.925306797027588
H 6.853564262390137 3.4908909797668457 -5.469358921051025
H 4.828231334686279 5.017071723937988 -3.2780702114105225
H 9.562675476074219 1.603413701057434 0.6099658012390137
H 8.355764389038086 4.39561653137207 0.13299892842769623
