19
Generated by QM7 dataset
C 1.8842458724975586 0.3868836462497711 1.6592739820480347
C 4.6772613525390625 0.17413826286792755 1.293441891670227
C 6.172204494476318 2.144801378250122 0.7279602885246277
C 8.910398483276367 2.0745224952697754 0.34780409932136536
C 10.210662841796875 -0.45228704810142517 0.5415199398994446
C 10.112944602966309 4.263184547424316 -0.16665494441986084
C 12.872474670410156 4.699918746948242 -0.600441575050354
H 1.3747568130493164 -0.23311661183834076 3.5661587715148926
H 0.9017962217330933 -0.8230513334274292 0.29891687631607056
H 1.2008075714111328 2.3238718509674072 1.4083373546600342
H 5.448647499084473 -1.7129989862442017 1.5198878049850464
H 5.284146785736084 3.9926133155822754 0.5327705144882202
H 9.396531105041504 -1.7944839000701904 -0.8090106844902039
H 10.010144233703613 -1.226054310798645 2.4512581825256348
H 12.231195449829102 -0.3743358552455902 0.13347135484218597
H 9.00615119934082 5.996327877044678 -0.2890714108943939
H 14.05051040649414 3.039492130279541 -0.27720391750335693
H 13.540889739990234 6.1858296394348145 0.674537718296051
H 13.17923355102539 5.339062213897705 -2.5431368350982666
