15
Generated by QM7 dataset
C 1.8641959428787231 0.16984859108924866 -0.0126422680914402
C 4.670307159423828 0.0012472192756831646 -0.0011149384081363678
N 6.170390605926514 1.940824270248413 -0.014135151170194149
N 8.711316108703613 1.0280866622924805 -0.0003590479609556496
C 8.638466835021973 -1.4217543601989746 0.018349241465330124
C 10.909445762634277 -3.0770976543426514 0.03787011280655861
C 6.024503707885742 -2.460366725921631 0.020692501217126846
H 1.2586331367492676 2.144820213317871 0.003703863127157092
H 1.1139179468154907 -0.7867307662963867 1.657516598701477
H 1.130831003189087 -0.7537928819656372 -1.7086148262023926
H 12.632668495178223 -1.937403917312622 0.022790096700191498
H 10.88383960723877 -4.294402599334717 -1.6298131942749023
H 10.88538932800293 -4.252035140991211 1.7357323169708252
H 5.642079830169678 -3.5529119968414307 -1.6837081909179688
H 5.634501934051514 -3.526512384414673 1.739776372909546
