17
Generated by QM7 dataset
C 4.426267623901367 -2.043379783630371 3.7034852504730225
C 5.50815486907959 -0.9693539142608643 1.6778311729431152
C 6.731204509735107 1.6129379272460938 1.465010166168213
C 6.669240474700928 3.132920265197754 3.882347822189331
C 5.463897228240967 5.344069957733154 4.162858963012695
C 9.432851791381836 1.3290632963180542 0.5816766023635864
C 10.3591947555542 2.3092074394226074 -1.5633515119552612
H 3.6058998107910156 -3.9196133613586426 3.572319269180298
H 4.313885688781738 -1.102674126625061 5.52109956741333
H 5.505055904388428 -2.053130865097046 -0.07487095147371292
H 5.656951904296875 2.6380198001861572 0.012755651026964188
H 7.6997270584106445 2.3659181594848633 5.4890875816345215
H 4.417612552642822 6.203252792358398 2.6221840381622314
H 5.508740425109863 6.342771053314209 5.954054832458496
H 10.693846702575684 0.24825331568717957 1.7964870929718018
H 9.189114570617676 3.409595012664795 -2.8389923572540283
H 12.325965881347656 2.033534288406372 -2.0775461196899414
