17
Generated by QM7 dataset
C 3.6068825721740723 -1.312528133392334 -2.3655025959014893
O 3.236987590789795 0.7617675065994263 -0.6976302266120911
C 5.5492753982543945 1.9652584791183472 0.13460519909858704
C 7.078970909118652 0.462151437997818 1.9824738502502441
C 6.805867671966553 3.7334563732147217 -1.7088415622711182
C 5.328120708465576 4.798033714294434 0.4648159444332123
O 6.821533203125 5.956019878387451 2.4140684604644775
H 4.8673295974731445 -0.8004502058029175 -3.9218053817749023
H 1.7720718383789062 -1.8438247442245483 -3.1532347202301025
H 4.368876934051514 -2.933119535446167 -1.3350348472595215
H 8.766704559326172 1.4787484407424927 2.615947961807251
H 7.720986366271973 -1.3103739023208618 1.1320971250534058
H 5.940920829772949 0.007275445386767387 3.649155616760254
H 5.998179912567139 3.920954942703247 -3.5796704292297363
H 8.846166610717773 3.8912484645843506 -1.6583669185638428
H 3.492100477218628 5.62253999710083 0.06510106474161148
H 6.866112232208252 7.781570911407471 2.204894542694092
