13
Generated by QM7 dataset
N 1.6677021980285645 0.5869867205619812 0.6809439063072205
N 4.187066078186035 0.1576031595468521 0.7530558705329895
C 5.513124942779541 2.181140899658203 0.37892788648605347
C 8.299545288085938 2.105135917663574 0.39508503675460815
C 9.61007022857666 4.230246543884277 0.0
C 12.267024993896484 4.230246543884277 0.0
C 14.516101837158203 4.230246543884277 0.0
H 0.7466307878494263 -1.1094204187393188 0.5499480962753296
H 1.0630087852478027 1.327475905418396 2.3625733852386475
H 4.630282402038574 4.043466091156006 0.027382131665945053
H 9.17813491821289 0.2861423194408417 0.7308138012886047
H 8.662467002868652 6.019401550292969 -0.3355964720249176
H 16.52928352355957 4.226164817810059 -0.0006236096378415823
