14
Generated by QM7 dataset
O 2.3458871841430664 -0.5900291800498962 -1.4864397048950195
C 4.540842056274414 -0.23494964838027954 -0.8391706943511963
C 5.4145002365112305 2.254140853881836 0.04291567951440811
C 7.81545352935791 2.5816116333007812 0.759386420249939
N 8.795371055603027 4.843254566192627 1.6152056455612183
C 10.666332244873047 4.696366310119629 3.662137985229492
C 11.464156150817871 5.352800369262695 1.039273738861084
H 5.963560104370117 -1.7554421424865723 -0.8837870955467224
H 4.038496017456055 3.768454074859619 0.08471642434597015
H 9.154097557067871 1.0202064514160156 0.7015608549118042
H 11.054576873779297 2.830904245376587 4.399074554443359
H 10.45763111114502 6.200909614562988 5.0296950340271
H 11.8139066696167 7.314279556274414 0.5838875770568848
H 12.429484367370605 3.95805025100708 -0.09928621351718903
