15
Generated by QM7 dataset
O 1.8662935495376587 0.35634565353393555 -1.3349781036376953
C 4.047264099121094 0.13626815378665924 0.22536873817443848
C 4.682382106781006 -2.51343035697937 1.4730037450790405
C 7.288938045501709 -1.0592292547225952 1.7811046838760376
C 6.721529006958008 -0.27113789319992065 -1.0604197978973389
C 6.660585403442383 1.2370336055755615 3.3094961643218994
C 4.493466377258301 2.037256956100464 2.2611706256866455
H 0.4503406286239624 0.19258199632167816 -0.17742638289928436
H 4.665771484375 -4.168849468231201 0.2285434752702713
H 3.685117244720459 -2.9831595420837402 3.224496364593506
H 9.000482559204102 -2.1044936180114746 2.2343366146087646
H 7.693585395812988 1.4204882383346558 -1.7505289316177368
H 6.859554767608643 -1.7559335231781006 -2.497462034225464
H 7.7194366455078125 2.048992156982422 4.848432540893555
H 3.362748861312866 3.6623458862304688 2.733356475830078
