12
Generated by QM7 dataset
O 1.9666001796722412 -0.10416170209646225 -0.1839270442724228
C 4.664278507232666 -0.04478650912642479 0.06289008259773254
C 6.080779552459717 -1.307218074798584 -2.0442302227020264
C 6.051224231719971 1.535251259803772 -1.8555409908294678
C 8.38144588470459 2.894191265106201 -1.1337789297103882
O 9.893037796020508 3.599644899368286 -2.738288640975952
H 1.1509376764297485 1.098649024963379 0.9427843689918518
H 5.451085090637207 -0.24008969962596893 1.9473627805709839
H 4.997437477111816 -2.174299955368042 -3.551570177078247
H 7.811182975769043 -2.3017430305480957 -1.5853101015090942
H 4.920544624328613 2.523653745651245 -3.251708507537842
H 8.677074432373047 3.257150888442993 0.8953144550323486
