15
Generated by QM7 dataset
C 6.943968772888184 -1.8659911155700684 0.4554995894432068
O 5.079980850219727 0.06708528101444244 0.6009517908096313
C 5.894282341003418 2.508819341659546 0.38922688364982605
C 8.255230903625488 3.387277364730835 0.10011769086122513
C 8.879974365234375 6.144917011260986 -0.11189068108797073
C 10.132144927978516 6.635168552398682 -2.5423808097839355
C 11.154203414916992 7.035563945770264 -4.526593208312988
H 5.985651016235352 -3.6895201206207275 0.6300913691520691
H 8.299110412597656 -1.705024242401123 2.01078200340271
H 7.91079044342041 -1.8260234594345093 -1.3736608028411865
H 4.264639377593994 3.7516732215881348 0.4868123531341553
H 9.854751586914062 2.10581636428833 0.020012199878692627
H 10.135168075561523 6.670260906219482 1.4487584829330444
H 7.18044900894165 7.316887378692627 0.05306350812315941
H 12.05752944946289 7.381912708282471 -6.294281005859375
