16
Generated by QM7 dataset
C 1.531282901763916 -0.44820523262023926 0.3374672830104828
C 4.320480823516846 0.0986625999212265 -0.15871809422969818
C 5.975673198699951 -1.198388695716858 1.8193527460098267
O 4.998703479766846 -0.9163848757743835 -2.5778887271881104
C 4.844974517822266 2.9725959300994873 -0.15074345469474792
N 7.1642351150512695 3.6383652687072754 -1.084324836730957
O 3.371838331222534 4.581508636474609 0.6263686418533325
H 0.3358232378959656 0.4788754880428314 -1.0779376029968262
H 0.9401009678840637 0.2193594127893448 2.2051403522491455
H 1.1398072242736816 -2.4771852493286133 0.2048274129629135
H 5.616417407989502 -0.4529673457145691 3.7166755199432373
H 7.988779544830322 -0.9429733157157898 1.4032728672027588
H 5.639604091644287 -3.2421464920043945 1.837494134902954
H 3.80745792388916 -0.22408372163772583 -3.7989163398742676
H 8.187370300292969 2.3603246212005615 -2.0764689445495605
H 7.565216064453125 5.49692964553833 -1.2593134641647339
