20
Generated by QM7 dataset
C 3.564080238342285 -0.11944958567619324 3.514040231704712
O 5.754083633422852 1.4273478984832764 3.35847806930542
C 5.687697887420654 3.219998836517334 1.3326159715652466
C 3.735875129699707 5.291025161743164 1.8170661926269531
C 8.363417625427246 4.304569244384766 1.0075074434280396
C 9.409475326538086 5.564638614654541 3.3901498317718506
N 11.94002628326416 6.567327499389648 2.906625509262085
H 3.919367551803589 -1.595268964767456 4.915631294250488
H 3.16481876373291 -1.0218504667282104 1.6976921558380127
H 1.9342103004455566 0.9819394946098328 4.144037246704102
H 5.203153133392334 2.2311806678771973 -0.4251883924007416
H 3.9015285968780518 6.056798934936523 3.7318501472473145
H 1.8158944845199585 4.537591457366943 1.6490505933761597
H 3.920199155807495 6.832701683044434 0.45088866353034973
H 8.370523452758789 5.651490688323975 -0.5692610740661621
H 9.63286018371582 2.7490413188934326 0.4812943637371063
H 9.508137702941895 4.209232807159424 4.95102596282959
H 8.194306373596191 7.128406047821045 3.9840340614318848
H 13.114718437194824 5.1152238845825195 2.432776689529419
H 12.642268180847168 7.302771091461182 4.542826175689697
