17
Generated by QM7 dataset
C 2.5060603618621826 -0.30657026171684265 0.3499206006526947
N 4.843575954437256 0.3113701641559601 0.6712874174118042
N 5.419432163238525 2.569007158279419 -0.3953495919704437
C 5.164885997772217 4.8098063468933105 1.2337076663970947
C 6.378543853759766 6.903188228607178 -0.30921587347984314
C 8.344141960144043 5.579359531402588 -1.9376496076583862
C 8.006485939025879 2.7780675888061523 -1.396186351776123
H 1.801154613494873 -2.1018102169036865 1.1323050260543823
H 1.129923939704895 0.8693684935569763 -0.6901846528053284
H 6.185149192810059 4.542618274688721 3.0188562870025635
H 3.1873066425323486 5.234333515167236 1.6652644872665405
H 4.971094608306885 7.823012828826904 -1.5216830968856812
H 7.222570896148682 8.357029914855957 0.8967884182929993
H 8.003122329711914 5.997650623321533 -3.936091661453247
H 10.260551452636719 6.204310894012451 -1.4751579761505127
H 8.25910472869873 1.6360492706298828 -3.103421688079834
H 9.393204689025879 2.152662515640259 0.015117809176445007
