21
Generated by QM7 dataset
C 1.8197118043899536 -0.09904054552316666 0.3003341853618622
C 4.632946968078613 -0.20975960791110992 -0.31926923990249634
C 6.091418743133545 2.3319787979125977 -0.1323942095041275
C 4.966616153717041 4.327340602874756 -1.9159177541732788
N 5.982362747192383 3.318699359893799 2.481304883956909
C 8.920546531677246 1.8958299160003662 -0.8677433729171753
N 10.318131446838379 0.41800743341445923 1.026631474494934
H 0.9926731586456299 -1.9883887767791748 0.12440066784620285
H 0.7992785573005676 1.143189787864685 -0.9979832768440247
H 1.4854003190994263 0.5453182458877563 2.2354514598846436
H 4.831784248352051 -0.9621540904045105 -2.2425947189331055
H 5.500406742095947 -1.6136938333511353 0.9375309348106384
H 4.94743537902832 3.6433541774749756 -3.870140314102173
H 6.073088645935059 6.078814506530762 -1.8774807453155518
H 3.025413751602173 4.827022075653076 -1.4011752605438232
H 6.496349334716797 1.883036494255066 3.664651393890381
H 4.159608364105225 3.7378594875335693 2.936993360519409
H 9.883796691894531 3.7193589210510254 -1.0822272300720215
H 9.038522720336914 0.9269106984138489 -2.6945981979370117
H 10.31764030456543 1.4595866203308105 2.6521739959716797
H 12.16301441192627 0.31422364711761475 0.48454466462135315
