13
Generated by QM7 dataset
C 0.2856887876987457 0.8733935952186584 0.5240777730941772
C 1.4456216096878052 -1.6979188919067383 0.2058478742837906
C -0.3221038281917572 -3.9260005950927734 0.4656285047531128
O -2.5541160106658936 -3.603008508682251 0.9582423567771912
N 3.8498823642730713 -1.8998361825942993 -0.26255854964256287
N 4.7075910568237305 -4.366306781768799 -0.5155361890792847
C 7.107977867126465 -4.397468090057373 -0.954765260219574
H 1.714227318763733 2.3462271690368652 0.27692046761512756
H -0.5226604342460632 1.0386123657226562 2.418339252471924
H -1.201072096824646 1.142830729484558 -0.885147750377655
H 0.522301435470581 -5.804123878479004 0.1820562183856964
H 8.091580390930176 -6.213173866271973 -1.2055885791778564
H 8.263167381286621 -2.6668381690979004 -1.0970048904418945
