10
Generated by QM7 dataset
O 1.8550118207931519 0.10574907809495926 0.0
N 4.4960174560546875 -0.08371486514806747 0.0
C 5.440389156341553 2.155704975128174 0.0
C 8.146647453308105 2.1233530044555664 0.0
C 10.416718482971191 2.1062698364257812 0.0
C 13.135807991027832 2.0817790031433105 -0.0
O 14.333213806152344 4.057317733764648 -0.0
H 1.3293278217315674 -1.6625055074691772 0.0
H 4.385071754455566 3.948129177093506 0.0
H 14.027795791625977 0.20182275772094727 -0.0
