12
Generated by QM7 dataset
C 1.8274407386779785 -0.0024377466179430485 0.09962636232376099
C 4.64453125 -0.015552446246147156 -0.4637010097503662
O 5.273337364196777 -2.2754571437835693 -1.8768192529678345
C 6.387746810913086 -1.2338210344314575 -3.976626396179199
C 6.404168605804443 1.253890037536621 -3.950529098510742
O 5.30372428894043 2.265101432800293 -1.8288391828536987
H 1.3004150390625 1.6763193607330322 1.1860677003860474
H 1.2756785154342651 -1.700092077255249 1.143548846244812
H 0.732420027256012 0.02766559086740017 -1.6575543880462646
H 5.726569175720215 -0.041347209364175797 1.30478036403656
H 7.084810256958008 -2.5317227840423584 -5.374777793884277
H 7.119032859802246 2.5708401203155518 -5.321525573730469
