12
Generated by QM7 dataset
C 2.698868989944458 -0.9071252346038818 -1.7546296119689941
C 4.702300071716309 -1.0239858627319336 -0.21231073141098022
C 6.377126693725586 1.18119215965271 0.4113366901874542
C 9.08635139465332 0.7023544907569885 -0.4081997275352478
O 10.121750831604004 -1.3736608028411865 -0.4007731080055237
C 10.494404792785645 2.954019784927368 -1.092034935951233
N 11.56094741821289 4.802606582641602 -1.6168874502182007
H 1.5723844766616821 -2.5829532146453857 -2.1302316188812256
H 2.1260552406311035 0.8331235647201538 -2.6785733699798584
H 5.181931495666504 -2.828617572784424 0.6576625108718872
H 6.37427282333374 1.4994410276412964 2.457059621810913
H 5.675093173980713 2.9050192832946777 -0.49890658259391785
