17
Generated by QM7 dataset
O 4.823809623718262 6.493703842163086 -0.7341018915176392
C 4.220930099487305 3.8972578048706055 -1.0429021120071411
C 5.751475811004639 2.3254213333129883 0.8188939094543457
C 8.546456336975098 2.383265972137451 0.13900825381278992
C 10.072202682495117 4.7317986488342285 0.9070685505867004
O 11.99789047241211 3.1652345657348633 2.0750515460968018
C 10.325765609741211 0.9993627667427063 1.9597783088684082
H 3.7720446586608887 7.43684720993042 -1.9121193885803223
H 4.616034030914307 3.3501064777374268 -2.9979937076568604
H 2.2001514434814453 3.657186985015869 -0.674802303314209
H 5.074084758758545 0.3684777021408081 0.7577235102653503
H 5.4645209312438965 3.0305914878845215 2.7464146614074707
H 8.88585090637207 1.8206944465637207 -1.8294627666473389
H 9.203968048095703 5.9882965087890625 2.3023667335510254
H 10.831815719604492 5.839896202087402 -0.6618387699127197
H 11.272858619689941 -0.6600246429443359 1.1719703674316406
H 9.566058158874512 0.5477182269096375 3.8299646377563477
