17
Generated by QM7 dataset
C 2.672753095626831 -0.6415242552757263 -2.287400007247925
C 4.499627113342285 -0.6763896942138672 -0.06532783061265945
C 5.721202373504639 1.8937323093414307 0.3903229236602783
N 7.3643951416015625 2.6224863529205322 -1.6746375560760498
C 7.998057842254639 5.096024513244629 -2.0214779376983643
N 9.681917190551758 5.393032550811768 -3.932576894760132
O 7.186156272888184 6.892265796661377 -0.823164701461792
H 1.7643049955368042 -2.488051176071167 -2.4938337802886963
H 3.651064157485962 -0.2143138349056244 -4.059093952178955
H 1.191207766532898 0.7746554613113403 -2.005925416946411
H 5.956511497497559 -2.1102383136749268 -0.40268173813819885
H 3.466362476348877 -1.240661859512329 1.6388272047042847
H 6.88816499710083 1.8273085355758667 2.0999202728271484
H 4.2765069007873535 3.3495583534240723 0.6770888566970825
H 8.74661636352539 1.3966209888458252 -2.151963472366333
H 9.461745262145996 4.237635135650635 -5.4342474937438965
H 9.989432334899902 7.229487419128418 -4.373676776885986
