17
Generated by QM7 dataset
N 1.8021184206008911 -0.0057636648416519165 -0.03435521945357323
C 4.566920280456543 0.01130056194961071 0.03214424103498459
C 5.62645149230957 2.707637310028076 0.0
C 8.355216026306152 2.707637310028076 0.0
C 10.604292869567871 2.707637310028076 0.0
C 13.333057403564453 2.707637310028076 0.0
N 14.279790878295898 5.289097785949707 0.040345653891563416
H 1.1824204921722412 -1.8301241397857666 -0.04535342752933502
H 1.1905274391174316 0.7776789665222168 -1.6847097873687744
H 5.285696506500244 -1.0612512826919556 -1.5891462564468384
H 5.197597026824951 -0.9745317697525024 1.7419873476028442
H 4.920619964599609 3.74908447265625 1.647066354751587
H 4.930616855621338 3.706660032272339 -1.6776610612869263
H 14.054384231567383 1.7398897409439087 -1.6810814142227173
H 14.05875015258789 1.6963694095611572 1.6522819995880127
H 13.58544921875 6.228764057159424 -1.490597128868103
H 16.193138122558594 5.263038635253906 -0.15569452941417694
