16
Generated by QM7 dataset
O 1.9621214866638184 0.17512091994285583 -0.5015711188316345
C 4.654660224914551 0.1786925047636032 -0.0447109192609787
C 5.63831901550293 1.9749906063079834 2.0393736362457275
N 7.390530109405518 -0.034298527985811234 2.8996524810791016
C 5.720181941986084 -1.9309788942337036 1.6954244375228882
C 7.1407270431518555 -4.0577898025512695 0.5429561138153076
C 8.870223045349121 -3.787275791168213 -1.289397954940796
H 1.6793996095657349 -1.3054417371749878 -1.5534493923187256
H 5.66796875 0.44329196214675903 -1.8345272541046143
H 4.224369525909424 2.501657247543335 3.4586334228515625
H 6.5699543952941895 3.6921846866607666 1.3650248050689697
H 9.138677597045898 0.07470087707042694 2.099410057067871
H 4.290604114532471 -2.660583257675171 3.014944553375244
H 6.730410575866699 -5.933324337005615 1.2726550102233887
H 9.381072998046875 -1.9698883295059204 -2.0850861072540283
H 9.846531867980957 -5.432603359222412 -2.0340633392333984
