17
Generated by QM7 dataset
C 1.881335735321045 0.12404162436723709 0.3709154427051544
C 4.6954026222229 -0.15784882009029388 -0.1643305867910385
C 5.283485412597656 -0.10854586958885193 -2.98425555229187
O 6.11600399017334 1.8240203857421875 1.1118581295013428
C 7.714504718780518 -0.0328812338411808 2.3331315517425537
C 6.030002593994141 -2.2172346115112305 1.4473601579666138
O 7.226766109466553 -4.312109470367432 0.16557779908180237
H 1.5046377182006836 0.24745963513851166 2.4022388458251953
H 0.8285126090049744 -1.4965685606002808 -0.370953232049942
H 1.1238957643508911 1.8369271755218506 -0.5094323754310608
H 7.32338809967041 -0.11742758005857468 -3.3378231525421143
H 4.512760639190674 1.5953823328018188 -3.870593786239624
H 4.4634575843811035 -1.752135157585144 -3.9361672401428223
H 9.629949569702148 0.002135390415787697 1.551521897315979
H 7.7924370765686035 0.24912258982658386 4.378079891204834
H 4.845597743988037 -2.9493143558502197 2.9822146892547607
H 8.413533210754395 -3.562039375305176 -1.0202631950378418
