21
Generated by QM7 dataset
C 2.191364288330078 5.797793388366699 -1.7978476285934448
C 4.969242572784424 5.798945903778076 -1.0752164125442505
C 6.051243305206299 3.1211094856262207 -1.0025564432144165
C 8.781803131103516 3.138646125793457 -0.24407702684402466
C 10.553836822509766 1.1320971250534058 -1.2263188362121582
C 10.795098304748535 3.8177571296691895 -2.145179271697998
C 12.985461235046387 5.405221462249756 -1.361150860786438
H 1.4672023057937622 7.734498023986816 -1.8624762296676636
H 1.0676764249801636 4.737770080566406 -0.42224040627479553
H 1.9097572565078735 4.945488929748535 -3.6617980003356934
H 5.198750019073486 6.703255653381348 0.7766018509864807
H 6.028566360473633 6.948749542236328 -2.4352145195007324
H 5.813969135284424 2.2266643047332764 -2.858513116836548
H 4.992146015167236 1.9728552103042603 0.35963377356529236
H 9.030831336975098 3.74347186088562 1.6998465061187744
H 9.831413269042969 -0.2629365026950836 -2.540982484817505
H 11.974854469299316 0.40090540051460266 0.056276045739650726
H 10.217994689941406 4.224029064178467 -4.068051338195801
H 13.666254043579102 4.914327144622803 0.5311453342437744
H 12.448155403137207 7.4011311531066895 -1.3534785509109497
H 14.551968574523926 5.163072109222412 -2.6899495124816895
