13
Generated by QM7 dataset
N 1.7253955602645874 0.5229628086090088 -2.2184250354766846
C 4.156622886657715 0.49718695878982544 -2.2044599056243896
N 5.583611488342285 2.3519721031188965 -1.1658287048339844
C 8.1609525680542 2.5528500080108643 -1.041957139968872
C 9.491300582885742 4.435943126678467 0.0
C 12.148255348205566 4.435943126678467 0.0
C 14.397332191467285 4.435943126678467 0.0
H 1.0708132982254028 -1.0721172094345093 -3.1062374114990234
H 5.243385314941406 -1.0694715976715088 -3.0556116104125977
H 4.566183090209961 3.781625509262085 -0.3904930055141449
H 9.138205528259277 0.9648374915122986 -1.9141980409622192
H 8.53426742553711 6.026279926300049 0.8721086382865906
H 16.410476684570312 4.437039375305176 0.0006047123461030424
