12
Generated by QM7 dataset
N 1.949328064918518 -0.5736641883850098 -0.04327472671866417
C 4.496584415435791 -0.04631718620657921 -0.06670733541250229
C 5.7703166007995605 2.150489330291748 0.0
C 4.374791622161865 4.591429710388184 0.028194714337587357
O 5.401952266693115 6.655974388122559 0.2716292440891266
C 8.427271842956543 2.150489330291748 0.0
C 10.676347732543945 2.150489330291748 0.0
H 1.5239696502685547 -2.3496477603912354 0.5727570652961731
H 0.8138294816017151 0.7543786764144897 0.7555881142616272
H 5.586105823516846 -1.79620361328125 -0.16877144575119019
H 2.30899977684021 4.459847927093506 -0.18574118614196777
H 12.689132690429688 2.1786463260650635 -0.0006425068713724613
