20
Generated by QM7 dataset
C 2.964923620223999 0.7559093236923218 -2.6997194290161133
N 5.689266204833984 0.9042339324951172 -2.349213123321533
C 6.3183369636535645 2.354353189468384 -0.08377155661582947
C 9.156365394592285 2.483081340789795 0.261292427778244
C 10.428056716918945 -0.028893912211060524 0.6943987607955933
C 10.3682279586792 4.725127696990967 0.2378220409154892
C 13.14289379119873 5.200904369354248 0.5075426697731018
H 2.5484280586242676 -0.3534354865550995 -4.394917011260986
H 2.1261308193206787 2.631141185760498 -2.94555401802063
H 2.053886651992798 -0.18867026269435883 -1.1001229286193848
H 6.4810614585876465 1.7819361686706543 -3.8700835704803467
H 5.490108013153076 1.4643676280975342 1.5946643352508545
H 5.512633323669434 4.25923490524292 -0.22204281389713287
H 9.349174499511719 -1.1521282196044922 2.058478593826294
H 12.33437442779541 0.1508757323026657 1.467315673828125
H 10.551021575927734 -1.0927530527114868 -1.0751596689224243
H 9.25865650177002 6.4375410079956055 -0.04030785709619522
H 14.288578033447266 3.490286350250244 0.3893969655036926
H 13.523824691772461 6.127474784851074 2.315538167953491
H 13.772286415100098 6.462825775146484 -1.0063358545303345
