14
Generated by QM7 dataset
N 1.8042727708816528 -0.002116493182256818 0.016591794788837433
C 4.569187641143799 0.01130056194961071 0.0657435730099678
C 5.62645149230957 2.707637310028076 0.0
C 8.355216026306152 2.707637310028076 0.0
C 10.604292869567871 2.707637310028076 0.0
C 13.499863624572754 2.7051806449890137 -0.00017007534916047007
C 15.767629623413086 2.703442096710205 0.00026456164778210223
H 1.181796908378601 -1.8258155584335327 0.04612821340560913
H 1.1826473474502563 0.7454213500022888 -1.6471041440963745
H 5.2779860496521 -1.078674554824829 -1.5479313135147095
H 5.208557605743408 -0.9561258554458618 1.7826164960861206
H 4.921338081359863 3.7689454555511475 1.6347265243530273
H 4.929463863372803 3.6857974529266357 -1.6894340515136719
H 17.781246185302734 2.703385591506958 0.0019464179640635848
