12
Generated by QM7 dataset
C 1.798641324043274 0.11820237338542938 -0.010091137140989304
C 4.586932182312012 -0.05138165503740311 -0.003628274193033576
N 6.021385669708252 2.038107395172119 -0.002834589220583439
O 8.505204200744629 1.1964044570922852 0.0033070207573473454
C 8.541354179382324 -1.3709018230438232 0.005858151242136955
C 6.108369827270508 -2.234525680541992 0.0015306781278923154
O 5.3713765144348145 -4.662199974060059 0.002116493182256818
H 1.1524683237075806 2.0836875438690186 0.008031335659325123
H 1.014329433441162 -0.8260937929153442 1.6550410985946655
H 1.0247039794921875 -0.7923054695129395 -1.698731541633606
H 10.392511367797852 -2.2245290279388428 0.010544671677052975
H 6.828298568725586 -5.7839035987854 0.00616050697863102
