11
Generated by QM7 dataset
C 2.135258197784424 -0.02757110446691513 0.1527087688446045
C 4.633702754974365 -0.016648488119244576 -0.21140366792678833
O 5.9841389656066895 -2.1453495025634766 -0.8750187754631042
C 8.310467720031738 -1.0463414192199707 -1.0126286745071411
N 8.618171691894531 1.321220874786377 -0.5529905557632446
C 6.286306381225586 2.2035529613494873 0.015628034248948097
N 5.886572360992432 4.506675720214844 0.5966621041297913
H 1.0980064868927002 1.663166880607605 0.6621411442756653
H 1.065219759941101 -1.7636624574661255 -0.06256883591413498
H 9.80091381072998 -2.3925065994262695 -1.5421488285064697
H 4.017463207244873 4.798033714294434 0.9682389497756958
