19
Generated by QM7 dataset
C 4.430708408355713 -0.860619068145752 -2.5961434841156006
C 4.583379745483398 0.30562540888786316 0.031407248228788376
N 6.260549068450928 2.507288694381714 0.021864131093025208
C 4.936588287353516 4.793195724487305 -0.9828843474388123
C 6.120501518249512 6.329221725463867 1.2115979194641113
N 8.670101165771484 7.185116767883301 0.4851493835449219
C 6.282583713531494 3.7326059341430664 2.558783769607544
H 3.2625553607940674 -2.567892074584961 -2.5488815307617188
H 6.3084917068481445 -1.398057222366333 -3.2861204147338867
H 3.588212013244629 0.44654229283332825 -3.9608092308044434
H 5.360359191894531 -1.1182643175125122 1.3205406665802002
H 2.67229962348938 0.7487661838531494 0.7038663029670715
H 2.863539695739746 4.736598491668701 -0.9032512903213501
H 5.489541053771973 5.337928295135498 -2.9026949405670166
H 4.939706325531006 7.773218154907227 2.0950260162353516
H 9.616986274719238 5.796885967254639 -0.4749637544155121
H 9.790311813354492 7.602386951446533 1.9931886196136475
H 7.985264778137207 3.372462034225464 3.676821231842041
H 4.633495330810547 3.338144540786743 3.756321907043457
