16
Generated by QM7 dataset
C 2.364595413208008 -0.36292189359664917 -1.3189910650253296
C 4.904633045196533 -0.17670829594135284 0.003420404391363263
N 5.97663688659668 2.317711353302002 -0.3966157138347626
C 8.500951766967773 2.8940398693084717 -0.24829111993312836
C 9.49959659576416 5.21243143081665 -0.2185090333223343
C 12.262980461120605 5.543606281280518 -0.09975863993167877
O 13.227383613586426 7.647627353668213 -0.07632603496313095
H 1.5513895750045776 -2.2462985515594482 -1.0598340034484863
H 2.561089038848877 -0.014891042374074459 -3.349841833114624
H 1.0301275253295898 1.0282378196716309 -0.5663698315620422
H 6.169351100921631 -1.636918544769287 -0.7435316443443298
H 4.670873641967773 -0.5135330557823181 2.0322682857513428
H 4.769460678100586 3.7981793880462646 -0.1585480272769928
H 9.703497886657715 1.223975658416748 -0.182207390666008
H 8.373735427856445 6.9182305335998535 -0.3009766936302185
H 13.404526710510254 3.801278591156006 -0.03569692745804787
