17
Generated by QM7 dataset
C 2.4485371112823486 -0.31573542952537537 0.7227446436882019
N 5.09789514541626 0.16208180785179138 1.2992812395095825
C 5.843033313751221 2.798344135284424 0.7988628149032593
C 4.502159118652344 4.708252429962158 2.494419574737549
C 8.660879135131836 2.9907562732696533 1.312887191772461
N 10.236268997192383 3.557239294052124 -0.47350868582725525
O 12.681347846984863 3.610945463180542 0.533337414264679
H 2.0629384517669678 -2.339367628097534 0.912397563457489
H 1.9722316265106201 0.23770864307880402 -1.2159820795059204
H 1.1919825077056885 0.6619521379470825 2.0420570373535156
H 6.174944877624512 -0.9817883372306824 0.17470517754554749
H 5.512028694152832 3.268772602081299 -1.1922659873962402
H 4.68761682510376 4.206511497497559 4.496565341949463
H 2.48878812789917 4.844256401062012 2.043323040008545
H 5.321998119354248 6.5957489013671875 2.2585818767547607
H 9.300400733947754 2.6217682361602783 3.2671852111816406
H 13.70578670501709 4.062741279602051 -0.9315215945243835
