14
Generated by QM7 dataset
O 1.5468164682388306 0.5994589328765869 -0.9262492656707764
C 3.9912149906158447 -0.08173065632581711 0.023224733769893646
C 5.532324314117432 -1.7370173931121826 -1.6816105842590332
C 6.213872909545898 1.003331184387207 -1.3893455266952515
N 8.45775318145752 1.733578085899353 -0.09425953775644302
C 8.824151992797852 4.072851181030273 0.9328444004058838
O 10.768037796020508 4.693493843078613 2.018832206726074
H 0.7511094212532043 1.873814582824707 0.1339626908302307
H 4.1795830726623535 -0.4032297730445862 2.0407907962799072
H 4.690319061279297 -2.332583427429199 -3.4518871307373047
H 6.721472263336182 -3.1547844409942627 -0.806138277053833
H 5.797509670257568 2.2058584690093994 -3.004343271255493
H 9.934574127197266 0.5204305648803711 0.05155172944068909
H 7.19840145111084 5.351232051849365 0.6959672570228577
