14
Generated by QM7 dataset
C 1.9375362396240234 0.03227652236819267 -0.27777084708213806
C 4.443615436553955 0.011130486615002155 0.00914627406746149
C 6.112054824829102 -2.290083408355713 0.1425420492887497
C 8.699146270751953 -1.2661164999008179 0.9492472410202026
C 8.4002103805542 1.5395976305007935 0.7835560441017151
C 6.020742893218994 2.2067465782165527 0.28039756417274475
H 0.8810092210769653 -1.7179499864578247 -0.4519280195236206
H 0.8760770559310913 1.7854132652282715 -0.3347838819026947
H 6.249607563018799 -3.183716058731079 -1.7229011058807373
H 5.408150672912598 -3.6895580291748047 1.4932427406311035
H 10.198700904846191 -1.9458131790161133 -0.30390575528144836
H 9.15487289428711 -1.8288391828536987 2.887652635574341
H 9.93236255645752 2.855584144592285 1.0924506187438965
H 5.345562934875488 4.1296186447143555 0.1257801651954651
