17
Generated by QM7 dataset
C 8.046832084655762 -0.5507795810699463 4.582642555236816
O 7.249291896820068 2.003657817840576 4.29948616027832
C 6.9098591804504395 2.6941258907318115 1.7194240093231201
C 5.291440963745117 5.072421550750732 1.64202082157135
C 9.415295600891113 3.1502678394317627 0.3392247259616852
C 11.230415344238281 5.0319061279296875 1.4684306383132935
O 9.933477401733398 2.017169237136841 -1.630644679069519
H 8.23179817199707 -0.9478299617767334 6.601002216339111
H 9.88305950164795 -0.8515483736991882 3.683567523956299
H 6.640365123748779 -1.8414814472198486 3.7875592708587646
H 5.889898300170898 1.1892046928405762 0.7210249900817871
H 6.077794075012207 6.56105375289917 2.8474204540252686
H 3.396763801574707 4.670325756072998 2.371549606323242
H 5.116055488586426 5.810378551483154 -0.28219279646873474
H 11.75679874420166 4.44478702545166 3.377431869506836
H 10.376448631286621 6.911181926727295 1.5059605836868286
H 12.942261695861816 5.117038249969482 0.31144577264785767
