13
Generated by QM7 dataset
N 1.8903497457504272 -0.08326133340597153 -0.31751179695129395
C 4.607662677764893 -0.13649491965770721 0.15733860433101654
C 5.844734191894531 -2.365861415863037 -1.0944916009902954
C 7.580088138580322 -1.6349343061447144 -2.774892807006836
N 7.689843654632568 0.9263626337051392 -2.874065637588501
C 5.9636921882629395 2.0351405143737793 -1.2439311742782593
O 5.59054708480835 4.298768043518066 -0.9923141002655029
H 1.275980830192566 1.722749948501587 -0.018424829468131065
H 1.0038036108016968 -1.1752207279205322 0.9922574162483215
H 5.05635929107666 -0.038248058408498764 2.1733930110931396
H 5.371659755706787 -4.305363178253174 -0.67650306224823
H 8.759296417236328 -2.802973985671997 -3.9662327766418457
H 8.794804573059082 1.9569815397262573 -4.0410661697387695
