16
Generated by QM7 dataset
C 1.8592448234558105 -0.012812343426048756 -0.03161511942744255
C 4.762109756469727 0.0 0.0
C 5.697013854980469 -1.3674436807632446 2.3848154544830322
C 5.750115394592285 -1.391991138458252 -2.347984790802002
C 5.672995567321777 2.5722384452819824 0.0
C 6.423746109008789 4.692322254180908 0.0
H 1.1178864240646362 0.9469417929649353 -1.7122997045516968
H 1.0816981792449951 0.9602643251419067 1.624918818473816
H 1.1169981956481934 -1.9464179277420044 -0.03178519383072853
H 5.029543876647949 -0.4252639710903168 4.105902671813965
H 7.767416954040527 -1.4068821668624878 2.4696452617645264
H 5.026936054229736 -3.32633376121521 2.438861608505249
H 5.110329627990723 -0.4765889346599579 -4.093864917755127
H 5.092131614685059 -3.355492115020752 -2.3888027667999268
H 7.822048664093018 -1.420979619026184 -2.3927900791168213
H 7.095978260040283 6.590627670288086 0.0
