17
Generated by QM7 dataset
C 1.8758177757263184 -0.11179620027542114 0.1408601850271225
C 4.7370710372924805 -0.006538452580571175 0.06183183938264847
C 6.011237621307373 2.0385987758636475 1.718819260597229
C 7.937605857849121 -0.05438631772994995 2.3485894203186035
N 5.924537181854248 -1.9183176755905151 1.7573885917663574
C 6.950544834136963 -4.018086910247803 0.2949484586715698
H 1.1752207279205322 -1.8002853393554688 -0.8305346369743347
H 1.0673739910125732 1.5390307903289795 -0.8103145956993103
H 1.150333046913147 -0.14125703275203705 2.0806074142456055
H 5.450990676879883 0.0067463223822414875 -1.8897449970245361
H 4.895543575286865 2.6698429584503174 3.346818447113037
H 6.757055759429932 3.6865532398223877 0.7221210598945618
H 9.586089134216309 -0.06421289592981339 1.0907877683639526
H 8.593793869018555 -0.08311015367507935 4.30840539932251
H 5.407205581665039 -5.201962471008301 -0.41528621315956116
H 8.12943172454834 -5.2109575271606445 1.5082659721374512
H 8.097854614257812 -3.4259979724884033 -1.3266066312789917
