16
Generated by QM7 dataset
C 1.8288769721984863 -0.05289343371987343 -0.014758761040866375
C 4.624008655548096 0.14203181862831116 -0.0006047123461030424
C 6.188645362854004 2.227609157562256 0.007899055257439613
C 8.712203979492188 1.3457874059677124 0.02016337774693966
C 8.636747360229492 -1.2617135047912598 0.018859466537833214
C 10.717449188232422 -3.138589382171631 0.028383687138557434
N 6.138718605041504 -1.9664490222930908 0.0057258703745901585
H 0.9536691904067993 1.8214503526687622 0.001814137096516788
H 1.1634855270385742 -1.0851941108703613 1.6499766111373901
H 1.1786600351333618 -1.0488357543945312 -1.7073864936828613
H 5.579340934753418 4.1803765296936035 0.005574692040681839
H 10.405927658081055 2.491452693939209 0.02900729700922966
H 9.998956680297852 -5.07899808883667 0.04427628219127655
H 11.908071517944336 -2.8838164806365967 1.7012826204299927
H 11.900984764099121 -2.908156156539917 -1.6530756950378418
H 5.5046586990356445 -3.770268201828003 0.0015684727113693953
