19
Generated by QM7 dataset
C 1.5989161729812622 0.1636880785226822 -0.7104236483573914
C 4.336014270782471 -0.00784236378967762 0.05446190759539604
C 4.845616817474365 0.059583064168691635 2.8764467239379883
C 4.588746547698975 2.721130132675171 3.987208843231201
N 5.084137916564941 2.70336651802063 6.70418119430542
C 6.052811622619629 -1.6145063638687134 -1.5843274593353271
N 6.201231002807617 1.1338924169540405 -1.65653395652771
H 1.3631728887557983 0.1291438788175583 -2.768051862716675
H 0.7417553067207336 1.9125350713729858 -0.015306781977415085
H 0.5388175845146179 -1.433621883392334 0.06971199810504913
H 6.749761581420898 -0.662424623966217 3.2770497798919678
H 3.526644706726074 -1.2318557500839233 3.822953701019287
H 2.6940314769744873 3.479212522506714 3.6486077308654785
H 5.933910369873047 4.002005100250244 3.0736584663391113
H 3.7385776042938232 1.6542662382125854 7.59885311126709
H 4.904954433441162 4.495488166809082 7.3894147872924805
H 5.27889347076416 -2.5094995498657227 -3.255242347717285
H 7.638386249542236 -2.594783067703247 -0.737333357334137
H 7.754925727844238 1.7569729089736938 -0.6918665170669556
