15
Generated by QM7 dataset
C 2.2127747535705566 -0.9507212042808533 -0.030349001288414
N 4.8070855140686035 -0.14796555042266846 -0.3843325078487396
C 5.5129923820495605 2.110332727432251 0.24606123566627502
N 4.034565448760986 4.07976770401001 1.1779041290283203
O 1.7715426683425903 4.430179595947266 -0.15463629364967346
C 8.31296157836914 2.4871251583099365 -0.0800865963101387
C 9.667234420776367 4.35007381439209 0.9680500030517578
H 2.1404926776885986 -3.0177037715911865 -0.08002990484237671
H 1.000647783279419 -0.25842005014419556 -1.555112361907959
H 1.4513096809387207 -0.3760932981967926 1.8054065704345703
H 4.988707065582275 5.746203422546387 1.2777950763702393
H 0.5225092768669128 3.6285009384155273 0.9377387762069702
H 9.241006851196289 1.050083041191101 -1.2177584171295166
H 8.87351131439209 5.778536796569824 2.19820499420166
H 11.693852424621582 4.433751106262207 0.6463619470596313
