18
Generated by QM7 dataset
C 5.729479789733887 -2.0859363079071045 -1.0718904733657837
C 5.104660511016846 0.1348697543144226 0.6501224637031555
O 6.201249599456787 -0.28640690445899963 3.0870754718780518
C 6.017643928527832 2.707221746444702 -0.3969936668872833
N 5.378085136413574 4.789133071899414 1.3833173513412476
C 8.889479637145996 2.810117244720459 -0.8688960671424866
O 9.5692138671875 5.316631317138672 -1.6200244426727295
H 5.012668609619141 -1.7768906354904175 -2.9853515625
H 4.881521701812744 -3.8219711780548096 -0.3299461901187897
H 7.7670578956604 -2.4304146766662598 -1.1572493314743042
H 3.0487897396087646 0.2150508314371109 0.9155156016349792
H 5.589904308319092 -1.9109477996826172 3.6981563568115234
H 5.044189453125 3.1173300743103027 -2.1790053844451904
H 6.090379238128662 4.257004737854004 3.1089208126068115
H 3.4685733318328857 4.799847602844238 1.6512049436569214
H 9.457039833068848 1.5273144245147705 -2.3852880001068115
H 9.969722747802734 2.3435628414154053 0.8335959911346436
H 8.466275215148926 6.397573471069336 -0.5932795405387878
