14
Generated by QM7 dataset
O 5.286168575286865 2.0629005432128906 -4.421297550201416
C 4.192206382751465 2.122445821762085 -2.388481616973877
N 5.332920551300049 2.172032356262207 -0.06504437327384949
C 8.060513496398926 2.3126089572906494 0.20123693346977234
C 9.083044052124023 5.004750728607178 -0.07458749413490295
C 8.21167278289795 6.655426502227783 1.9923949241638184
C 7.500341892242432 8.010265350341797 3.670339584350586
H 2.114131212234497 2.1479005813598633 -2.2335805892944336
H 4.248709201812744 2.474388599395752 1.481318473815918
H 8.920735359191895 1.1014268398284912 -1.2417957782745361
H 8.529921531677246 1.528618335723877 2.0590834617614746
H 8.509814262390137 5.8092827796936035 -1.8948662281036377
H 11.153428077697754 4.939970970153809 -0.0607169009745121
H 6.87363338470459 9.223111152648926 5.149900436401367
