17
Generated by QM7 dataset
C 1.5161272287368774 -1.2306841611862183 0.0649498850107193
C 4.375925540924072 -0.8179112672805786 0.09310680627822876
N 5.56433629989624 -2.4031646251678467 -1.8578275442123413
C 5.054998397827148 1.991147756576538 -0.26248297095298767
O 4.014874458312988 2.919192314147949 -2.5824618339538574
N 4.564368724822998 5.507550239562988 -2.7747981548309326
C 3.736215353012085 6.321266174316406 -4.916916370391846
H 0.5998557806015015 -0.07394498586654663 1.5165430307388306
H 1.0525397062301636 -3.209794282913208 0.4606207311153412
H 0.6801502108573914 -0.7399033904075623 -1.7643239498138428
H 5.111652374267578 -1.4304848909378052 1.9292213916778564
H 5.104471683502197 -1.6909836530685425 -3.5921237468719482
H 4.831954002380371 -4.182209491729736 -1.7924808263778687
H 7.112815856933594 2.2369821071624756 -0.29239732027053833
H 4.284330368041992 3.0971856117248535 1.312943935394287
H 3.986755132675171 8.31921672821045 -5.437743663787842
H 2.7659354209899902 5.097479343414307 -6.296473026275635
