15
Generated by QM7 dataset
N 3.5974338054656982 -0.8470319509506226 -2.3031980991363525
C 4.14577579498291 0.26335224509239197 0.1711146980524063
C 6.083009719848633 2.359304189682007 -0.0734347552061081
C 5.1704607009887695 4.88361930847168 -1.236069917678833
N 6.303786277770996 6.146617889404297 0.9617761373519897
C 6.466434955596924 3.9677445888519287 2.319279670715332
O 6.677687644958496 3.638554334640503 4.565351486206055
H 2.2510039806365967 -2.212888240814209 -2.091378927230835
H 5.161239147186279 -1.769860863685608 -2.955078125
H 4.853610515594482 -1.2187410593032837 1.4314297437667847
H 2.3819620609283447 0.9777064919471741 0.9873818755149841
H 7.898375034332275 1.6944607496261597 -0.8316873908042908
H 3.1260604858398438 5.178170680999756 -1.3387764692306519
H 6.065793991088867 5.412780284881592 -3.02016019821167
H 5.706632614135742 7.711726665496826 1.8816192150115967
