12
Generated by QM7 dataset
N 2.46006441116333 -0.28134241700172424 -1.602790117263794
C 4.787243366241455 -0.276655912399292 -0.5176904797554016
O 5.680346488952637 -2.16294264793396 0.47337639331817627
C 6.096464157104492 2.1846179962158203 -0.6555460095405579
C 8.405993461608887 2.4247453212738037 0.3492402732372284
C 9.728574752807617 4.759180545806885 0.256227970123291
C 10.853906631469727 6.72540283203125 0.18319004774093628
H 1.6632802486419678 1.2370713949203491 -2.437028646469116
H 1.4783515930175781 -1.9217191934585571 -1.561915397644043
H 5.152111530303955 3.749178886413574 -1.5723087787628174
H 9.330503463745117 0.8337660431861877 1.2647747993469238
H 11.86041259765625 8.467957496643066 0.12275660783052444
