12
Generated by QM7 dataset
C 3.2274444103240967 -0.8399454951286316 -2.2986440658569336
C 4.089027404785156 0.39340317249298096 -0.26000741124153137
C 6.112300395965576 2.388878345489502 -0.18995526432991028
O 6.933159351348877 3.079252004623413 -2.6369049549102783
C 6.465830326080322 5.5731425285339355 -2.667140483856201
N 5.4818878173828125 6.597090721130371 -0.7020899653434753
O 5.13877010345459 4.59849739074707 1.0265370607376099
H 1.7444440126419067 -2.2478103637695312 -2.1241655349731445
H 3.9645698070526123 -0.47600311040878296 -4.179204940795898
H 3.268092393875122 -0.05740987882018089 1.5705702304840088
H 7.733590602874756 1.7016228437423706 0.898772656917572
H 6.9965410232543945 6.52112340927124 -4.432163715362549
