14
Generated by QM7 dataset
C 1.4539175033569336 0.22213730216026306 -0.05304461345076561
C 4.219153881072998 -0.424886018037796 0.140123188495636
C 4.9512715339660645 -3.1671810150146484 -0.14017988741397858
N 5.817370891571045 1.4003437757492065 0.5253438949584961
N 8.313679695129395 0.5959440469741821 0.6630859971046448
C 9.800837516784668 2.4879188537597656 1.0535411834716797
H 1.157532811164856 2.2540276050567627 0.1797318458557129
H 0.41207367181777954 -0.7859370708465576 1.4195244312286377
H 0.7455347776412964 -0.3565157353878021 -1.9060155153274536
H 3.267752170562744 -4.337488174438477 -0.39676690101623535
H 5.94417142868042 -3.8048880100250244 1.5559816360473633
H 6.172828197479248 -3.3957433700561523 -1.7909879684448242
H 11.851134300231934 2.177701473236084 1.2123348712921143
H 9.122180938720703 4.4501729011535645 1.2429484128952026
