16
Generated by QM7 dataset
C 2.0265612602233887 0.17058557271957397 -0.34874895215034485
N 4.759898662567139 0.14632149040699005 0.027967946603894234
C 6.102360248565674 -1.3746434450149536 -1.834999680519104
C 6.146598815917969 1.4830381870269775 -1.9654852151870728
C 8.46992301940918 2.839294672012329 -1.1674538850784302
C 8.271501541137695 4.476950168609619 1.1426795721054077
O 10.413543701171875 2.6369049549102783 -2.4132368564605713
H 1.2291345596313477 1.8867403268814087 0.48802176117897034
H 1.1796804666519165 -1.4507049322128296 0.6183561682701111
H 1.4367587566375732 0.10221529006958008 -2.334851026535034
H 5.0273518562316895 -2.3973631858825684 -3.244943141937256
H 7.783158302307129 -2.3394808769226074 -1.170250654220581
H 5.097857475280762 2.37143611907959 -3.48348331451416
H 6.534672737121582 5.5935139656066895 1.0725518465042114
H 9.877522468566895 5.776495933532715 1.2020169496536255
H 8.294121742248535 3.300614595413208 2.8394458293914795
