18
Generated by QM7 dataset
C 1.84146249294281 -0.1112859696149826 -0.07953857630491257
C 4.734028339385986 -0.05867599695920944 0.09582801163196564
C 5.595724582672119 -1.45694100856781 2.4825711250305176
C 5.886251449584961 -1.3200114965438843 -2.2452969551086426
C 5.554150581359863 2.6971495151519775 0.09637603163719177
N 6.763027667999268 3.711308717727661 1.9660899639129639
O 7.234797477722168 6.251176357269287 1.4030838012695312
H 1.1708743572235107 0.868593692779541 -1.7766071557998657
H 0.9801631569862366 0.8305535316467285 1.5507092475891113
H 1.1277129650115967 -2.054661512374878 -0.14547111093997955
H 4.804949760437012 -0.5914843082427979 4.190297603607178
H 7.658190727233887 -1.4253259897232056 2.669257164001465
H 4.996549129486084 -3.4381299018859863 2.446401596069336
H 5.292820453643799 -0.36624783277511597 -3.9850921630859375
H 5.318539619445801 -3.3056790828704834 -2.3852689266204834
H 7.955123424530029 -1.2491846084594727 -2.1846935749053955
H 5.055962085723877 3.8231616020202637 -1.5932658910751343
H 8.131189346313477 6.8281097412109375 2.9075703620910645
