14
Generated by QM7 dataset
O 1.5888439416885376 -0.4859808683395386 -0.28051096200942993
C 4.134852886199951 0.31063318252563477 0.32338884472846985
C 6.416527271270752 -1.2383753061294556 -0.8802722096443176
N 7.933864116668701 1.201053261756897 -0.39158904552459717
C 5.47803258895874 2.315519332885742 -1.4791264533996582
C 5.479790210723877 1.2573481798171997 -4.074362754821777
C 6.11832857131958 -1.1577785015106201 -3.668449640274048
H 0.5654249787330627 1.0225119590759277 -0.061170436441898346
H 4.2905097007751465 0.6979703307151794 2.3560538291931152
H 7.109716415405273 -2.9567031860351562 0.015325678512454033
H 8.236125946044922 1.5828346014022827 1.4706038236618042
H 5.176319122314453 4.3335957527160645 -1.2106341123580933
H 5.0773539543151855 2.2006239891052246 -5.830202102661133
H 6.35898494720459 -2.670164108276367 -5.006130218505859
