14
Generated by QM7 dataset
N 2.3579814434051514 2.270505905151367 -3.3745028972625732
C 4.7235026359558105 2.6085591316223145 -2.9281117916107178
N 6.189665794372559 0.8852233290672302 -1.726227045059204
C 8.541051864624023 1.6816673278808594 -0.5487008690834045
C 10.736762046813965 -0.11098361760377884 -0.3829340934753418
C 10.877886772155762 2.1488075256347656 -2.091492176055908
H 1.6566661596298218 3.816868782043457 -4.311126708984375
H 5.718953609466553 4.346804618835449 -3.5120182037353516
H 5.179928302764893 -0.5659351944923401 -0.9782545566558838
H 8.230721473693848 2.894550323486328 1.0810744762420654
H 10.557862281799316 -1.9551106691360474 -1.2557041645050049
H 11.861489295959473 -0.09410835802555084 1.328023910522461
H 12.095890998840332 3.6990065574645996 -1.5386905670166016
H 10.789958000183105 1.8237179517745972 -4.11176061630249
