17
Generated by QM7 dataset
C 1.873795747756958 0.1796751618385315 0.15915273129940033
C 4.704076290130615 -0.20528094470500946 -0.04746992141008377
O 6.0722761154174805 1.77201509475708 1.275243878364563
C 7.758270740509033 -0.07460638880729675 2.3899178504943848
C 6.056629180908203 -2.286323070526123 1.5354403257369995
C 4.58929443359375 -3.4881699085235596 3.6958885192871094
O 7.280509948730469 -4.274106979370117 0.09507212042808533
H 0.861960768699646 -1.4441097974777222 -0.6250080466270447
H 1.2923080921173096 1.8581488132476807 -0.9020418524742126
H 1.2652283906936646 0.4375282824039459 2.119478940963745
H 5.268972396850586 -0.2244238704442978 -2.045987606048584
H 9.630459785461426 0.003647171426564455 1.512366771697998
H 7.950777053833008 0.19957397878170013 4.430009365081787
H 3.7164676189422607 -2.0695712566375732 4.924304962158203
H 5.839366912841797 -4.642036437988281 4.875134468078613
H 3.089003086090088 -4.716605186462402 2.972917079925537
H 8.253662109375 -3.412353992462158 -1.2069870233535767
