15
Generated by QM7 dataset
C 1.7003189325332642 1.5845921039581299 -0.38331204652786255
O 4.118261337280273 1.5389740467071533 0.7960282564163208
C 5.696541786193848 3.5737366676330566 0.2739535868167877
C 4.687333583831787 6.178024768829346 -0.21134696900844574
O 2.4586849212646484 6.778409957885742 0.007558904588222504
C 8.194306373596191 3.115591526031494 0.2664513885974884
C 10.370930671691895 4.869843006134033 -0.1316194236278534
H 0.9647808074951172 -0.3484088182449341 -0.37830427289009094
H 1.8135323524475098 2.210299253463745 -2.352973699569702
H 0.3826695382595062 2.7476806640625 0.7036017179489136
H 6.082442760467529 7.595886707305908 -0.8053445816040039
H 8.764455795288086 1.168890118598938 0.6327747702598572
H 9.85726547241211 6.866584300994873 -0.10903719812631607
H 11.289506912231445 4.450002670288086 -1.9362133741378784
H 11.762543678283691 4.586592197418213 1.3739253282546997
