13
Generated by QM7 dataset
O 2.029395818710327 -0.0008125822641886771 1.5750489234924316
C 4.579014301300049 -0.021939720958471298 0.659212052822113
C 5.049933910369873 1.4120978116989136 -1.7504533529281616
N 7.623495578765869 2.1801960468292236 -2.474029541015625
N 8.87084674835205 0.0003779452235903591 -3.191293954849243
C 7.513078689575195 -1.9906375408172607 -2.748795747756958
C 4.982111930847168 -1.411512017250061 -1.7788937091827393
H 1.7005267143249512 1.5479124784469604 2.5234458446502686
H 6.0938944816589355 -0.09210525453090668 2.0435121059417725
H 3.491061210632324 2.4506912231445312 -2.5770761966705322
H 7.678845405578613 3.475395441055298 -3.9006593227386475
H 8.126218795776367 -3.937943696975708 -3.112057685852051
H 3.395592212677002 -2.3304481506347656 -2.6800851821899414
