18
Generated by QM7 dataset
C 1.889726161956787 0.0 0.0
C 4.618490695953369 0.0 0.0
C 6.86756706237793 0.0 0.0
C 9.596331596374512 0.0 0.0
N 10.651894569396973 2.5740904808044434 0.029914364218711853
C 10.192445755004883 3.8314764499664307 2.4560391902923584
C 13.370814323425293 2.48909068107605 -0.47872433066368103
H 1.1454007625579834 1.9292213916778564 0.026701830327510834
H 1.1451174020767212 -0.9874386191368103 1.6574220657348633
H 1.1449661254882812 -0.9414048790931702 -1.6839349269866943
H 10.221529006958008 -0.9694105982780457 -1.7243561744689941
H 10.324292182922363 -1.1115368604660034 1.5925477743148804
H 8.168378829956055 4.062684535980225 2.815011739730835
H 10.994577407836914 5.741063594818115 2.441148281097412
H 11.025172233581543 2.7940356731414795 4.043068885803223
H 13.738630294799805 1.6535292863845825 -2.3356826305389404
H 14.398957252502441 1.3947123289108276 0.9466016292572021
H 14.161664009094238 4.401833534240723 -0.5285753011703491
