14
Generated by QM7 dataset
O 1.9347015619277954 -0.05109819397330284 0.08059681951999664
C 4.637538909912109 -0.013776103965938091 -0.010185623541474342
C 5.5734639167785645 -2.3232481479644775 -1.4938851594924927
C 6.128363132476807 -1.2592378854751587 -4.056183815002441
C 6.12957239151001 1.2670047283172607 -4.048095703125
C 5.577847957611084 2.3077714443206787 -1.4787296056747437
H 1.3840543031692505 1.5344197750091553 0.8257536292076111
H 5.317954063415527 -0.028383687138557434 1.9433754682540894
H 4.148270130157471 -3.817209005355835 -1.5991806983947754
H 7.31730318069458 -3.0850534439086914 -0.681435227394104
H 6.514377117156982 -2.418887138366699 -5.693045616149902
H 6.520235538482666 2.43323016166687 -5.679250717163086
H 7.322934627532959 3.05916428565979 -0.6590608954429626
H 4.157737731933594 3.807061195373535 -1.5735749006271362
