21
Generated by QM7 dataset
C 1.8334500789642334 0.06651835888624191 0.28563210368156433
C 4.712863445281982 0.019861022010445595 0.003458198858425021
C 5.647635459899902 -2.5306644439697266 -1.0167293548583984
C 5.065637588500977 -2.909290075302124 -3.81947660446167
C 6.045555114746094 -0.718606173992157 -5.416182041168213
C 5.082871913909912 1.825154185295105 -4.460509777069092
C 5.6620354652404785 2.201965570449829 -1.6568552255630493
H 1.213771104812622 1.8616447448730469 1.1090991497039795
H 1.201979160308838 -1.4503648281097412 1.5444921255111694
H 0.8583136200904846 -0.16744863986968994 -1.521966576576233
H 5.50613260269165 0.27378353476524353 1.9032565355300903
H 4.829327583312988 -4.087005138397217 0.07976534217596054
H 7.701919078826904 -2.640589952468872 -0.7480291724205017
H 5.9277119636535645 -4.676939964294434 -4.4698638916015625
H 3.022352457046509 -3.111396312713623 -4.0952067375183105
H 8.117999076843262 -0.7217997908592224 -5.385530471801758
H 5.4735541343688965 -0.9834890961647034 -7.388299942016602
H 5.958287715911865 3.3500688076019287 -5.556116104125977
H 3.040985107421875 1.9618003368377686 -4.784238338470459
H 7.716715335845947 2.368110418319702 -1.4238708019256592
H 4.852363109588623 3.998131275177002 -1.0151797533035278
