12
Generated by QM7 dataset
N 3.571979284286499 2.2969810962677 -3.732360363006592
C 5.107646465301514 1.9158421754837036 -2.2043087482452393
C 6.932687282562256 1.4210362434387207 -0.2530154287815094
N 9.239154815673828 1.7745851278305054 -0.9518361687660217
N 10.871122360229492 1.285448431968689 0.9439749121665955
C 13.181160926818848 0.3018081486225128 -0.22143810987472534
C 13.020553588867188 2.9977481365203857 0.6123846769332886
H 6.279144287109375 0.8014328479766846 1.6244086027145386
H 13.165816307067871 -0.11034110933542252 -2.2271177768707275
H 14.26195240020752 -1.0006099939346313 0.9268728494644165
H 13.99170207977295 3.535998821258545 2.3300323486328125
H 12.893393516540527 4.462550640106201 -0.812771201133728
