17
Generated by QM7 dataset
N 4.243663311004639 -0.7676445245742798 -2.792032480239868
C 4.539651393890381 0.2565681040287018 -0.22584116458892822
C 6.475656986236572 2.4477434158325195 -0.06939074397087097
N 6.881041049957275 3.228691577911377 2.598940372467041
C 5.938842296600342 5.8425798416137695 2.8401451110839844
C 5.323358535766602 6.682600498199463 0.23935271799564362
C 5.615623474121094 4.784314155578613 -1.3919533491134644
H 2.9707818031311035 -2.211716651916504 -2.73409366607666
H 5.912045955657959 -1.5439629554748535 -3.358156681060791
H 5.143513202667236 -1.2874704599380493 1.0180710554122925
H 2.683411121368408 0.8897775411605835 0.4453895390033722
H 8.288263320922852 1.8270816802978516 -0.8628300428390503
H 8.782313346862793 3.2747442722320557 2.8993122577667236
H 7.383065700531006 7.054593086242676 3.690464973449707
H 4.253754615783691 5.877653121948242 4.037985801696777
H 4.677034378051758 8.55749225616455 -0.23731181025505066
H 5.243706703186035 4.872129917144775 -3.3965182304382324
