14
Generated by QM7 dataset
C 1.7958256006240845 -0.017839014530181885 -0.15673388540744781
C 4.5864410400390625 0.06030116230249405 0.2648073136806488
C 5.969115734100342 2.1710495948791504 0.05347925052046776
C 8.722484588623047 2.098276376724243 0.5045379996299744
N 10.092913627624512 4.117335319519043 0.30466166138648987
N 12.571440696716309 3.698326349258423 0.7723499536514282
H 1.3517967462539673 -1.3334474563598633 -1.6891695261001587
H 1.0271416902542114 1.8367382287979126 -0.6556593775749207
H 0.8426477909088135 -0.6710984706878662 1.558173656463623
H 5.473610877990723 -1.7235058546066284 0.7700445055961609
H 5.167324066162109 3.9900434017181396 -0.4401738941669464
H 9.533649444580078 0.24262194335460663 1.021094560623169
H 13.48104190826416 5.399023056030273 0.9161014556884766
H 13.408552169799805 2.8243467807769775 -0.7359538674354553
