18
Generated by QM7 dataset
C 3.5127174854278564 0.2615569829940796 -1.3700135946273804
C 3.440662145614624 -0.2429998815059662 1.419222116470337
C 0.99329674243927 0.0248687956482172 -0.03741657733917236
C -0.6463619470596313 2.3028957843780518 0.3830663859844208
C -3.26688289642334 1.3366222381591797 -0.3045293688774109
N -3.1535749435424805 -1.344332218170166 0.36966821551322937
C -0.6693220734596252 -2.2404403686523438 -0.48435571789741516
H 4.128503799438477 2.1155107021331787 -1.987141489982605
H 4.118771553039551 -1.263130784034729 -2.5972962379455566
H 3.9855079650878906 -2.104588031768799 2.0784342288970947
H 3.9910638332366943 1.272371530532837 2.6853952407836914
H -0.5812608599662781 2.880868673324585 2.373326063156128
H -0.106278195977211 3.9134716987609863 -0.8005068898200989
H -4.755590438842773 2.3288795948028564 0.7266941666603088
H -3.615159511566162 1.5455503463745117 -2.3349266052246094
H -4.553899765014648 -2.3295977115631104 -0.5058041214942932
H -0.728546142578125 -2.714780569076538 -2.5000510215759277
H -0.08452744781970978 -3.9041552543640137 0.5937330722808838
