15
Generated by QM7 dataset
C 1.9537122249603271 0.15998421609401703 -0.45515942573547363
N 4.636839866638184 -0.06270111352205276 0.14205071330070496
C 6.012938499450684 -1.6951032876968384 -1.594834327697754
C 6.274250030517578 1.1500306129455566 -1.7194807529449463
C 8.58838939666748 2.319185256958008 -0.7600856423377991
C 10.80577564239502 2.439542055130005 -1.9776740074157715
H 1.221311092376709 1.942147135734558 0.2993326187133789
H 0.9122275114059448 -1.37968909740448 0.453874409198761
H 1.5204925537109375 0.10514435917139053 -2.4817395210266113
H 4.981904029846191 -2.6442558765411377 -3.0861117839813232
H 7.531598091125488 -2.791125535964966 -0.7670020461082458
H 5.386040687561035 2.1344456672668457 -3.2841551303863525
H 8.466540336608887 3.1702234745025635 1.1097416877746582
H 11.044598579406738 1.627413272857666 -3.8438353538513184
H 12.426403999328613 3.3504276275634766 -1.1124628782272339
