15
Generated by QM7 dataset
C -1.9167492389678955 0.00011338356853229925 -2.2358672618865967
C -1.0645772218704224 1.9402574300765991 -0.1981377899646759
C -2.1128082275390625 -0.0003779452235903591 1.7431211471557617
C -1.0644071102142334 -1.9398794174194336 -0.1980999857187271
O 1.6436837911605835 -2.282108783721924 -0.04695969447493553
C 3.0934627056121826 -1.8897260815720074e-05 -0.2345339059829712
O 1.6439294815063477 2.2819008827209473 -0.04675182327628136
H -3.940551519393921 7.55890432628803e-05 -2.672431707382202
H -0.8391706943511963 3.779452163144015e-05 -3.99815034866333
H -2.0381641387939453 3.761669874191284 -0.24063771963119507
H -1.2009965181350708 -0.0022109795827418566 3.5970559120178223
H -4.1682257652282715 -0.00013228082389105111 1.9816235303878784
H -2.038428783416748 -3.7620668411254883 -0.24094007909297943
H 4.067144393920898 -5.6691784266149625e-05 -2.0582518577575684
H 4.5073747634887695 -0.00020786987442988902 1.2732408046722412
