21
Generated by QM7 dataset
C 1.8536512851715088 -0.020598014816641808 0.22576558589935303
C 4.712088584899902 0.015344575978815556 0.06302236765623093
C 6.093478679656982 2.0125961303710938 1.6978055238723755
C 8.15564250946045 -0.008957302197813988 2.2678792476654053
C 9.003543853759766 -0.07570242881774902 5.022004127502441
C 10.418740272521973 0.06634828448295593 0.47108983993530273
C 6.138756275177002 -2.0407907962799072 1.582777976989746
H 1.089805006980896 -1.664678692817688 -0.7718397378921509
H 1.054826259613037 1.6776043176651 -0.6452847719192505
H 1.1990690231323242 -0.10168616473674774 2.187169075012207
H 5.318634033203125 0.07951967418193817 -1.9221349954605103
H 5.018829345703125 2.6253397464752197 3.36159610748291
H 6.726858139038086 3.6982128620147705 0.6816242337226868
H 7.389528274536133 -0.12863366305828094 6.316617488861084
H 10.126513481140137 1.5991806983947754 5.488520622253418
H 10.162607192993164 -1.7491116523742676 5.396528720855713
H 9.834135055541992 0.111361563205719 -1.5130469799041748
H 11.617034912109375 -1.6010326147079468 0.7307004332542419
H 11.57591438293457 1.746466040611267 0.8190451264381409
H 6.80872106552124 -3.6512911319732666 0.4730362594127655
H 5.079697132110596 -2.7704708576202393 3.208622694015503
