21
Generated by QM7 dataset
C 1.9875950813293457 0.18368138372898102 -0.165294349193573
C 4.804080486297607 0.11997871100902557 -0.1020452082157135
C 6.361025810241699 -1.2883397340774536 -2.044041156768799
C 5.195934295654297 -2.7186355590820312 -4.17527437210083
C 6.474107265472412 1.588012456893921 -1.937762975692749
C 5.324889183044434 3.1536693572998047 -4.024946689605713
C 8.851042747497559 2.7557308673858643 -0.8657402396202087
H 1.2937631607055664 1.6735225915908813 1.0900506973266602
H 1.2324415445327759 -1.6188149452209473 0.5125315189361572
H 1.2009021043777466 0.5288965702056885 -2.0413198471069336
H 5.4425811767578125 -0.030821433290839195 1.8464891910552979
H 7.996508598327637 -2.315500259399414 -1.3418567180633545
H 3.4506211280822754 -1.8771405220031738 -4.888664722442627
H 4.753832817077637 -4.64454984664917 -3.5618503093719482
H 6.531441688537598 -2.8454363346099854 -5.749359607696533
H 3.6487021446228027 2.3053903579711914 -4.879518508911133
H 6.7070159912109375 3.4378087520599365 -5.540015697479248
H 4.779268741607666 5.013178825378418 -3.298346996307373
H 9.658976554870605 1.6120120286941528 0.6589664220809937
H 8.44650936126709 4.634950160980225 -0.10111924260854721
H 10.287178039550781 2.9454405307769775 -2.3430335521698
