17
Generated by QM7 dataset
N 1.7025487422943115 0.2260112464427948 0.4782140851020813
C 4.414740562438965 0.07736539095640182 -0.06064131110906601
C 5.872720718383789 1.8734934329986572 1.7353166341781616
N 7.594053268432617 -0.23634804785251617 2.407076358795166
C 5.683181285858154 -2.0617856979370117 1.4791830778121948
C 4.946679592132568 0.29135796427726746 -2.7985711097717285
C 4.482354640960693 -1.610405683517456 -4.401927947998047
H 1.2648881673812866 0.01568472757935524 2.3417296409606934
H 0.6673756837844849 -1.0911656618118286 -0.46672457456588745
H 4.815456867218018 2.5862979888916016 3.371724843978882
H 6.825350761413574 3.488661289215088 0.8572742342948914
H 9.199772834777832 -0.2436046004295349 1.337510347366333
H 6.486106872558594 -3.636759042739868 0.4030030071735382
H 4.545358180999756 -2.872572660446167 3.012185573577881
H 5.703212261199951 2.0655462741851807 -3.502739667892456
H 3.70601749420166 -3.4032645225524902 -3.7772979736328125
H 4.866951942443848 -1.3983407020568848 -6.406682014465332
