13
Generated by QM7 dataset
C 1.8364359140396118 -0.03998660668730736 0.0015684727113693953
C 4.372901916503906 0.0 0.0
C 5.701379299163818 -2.3009872436523438 0.0
C 6.825917720794678 -4.248746871948242 0.0
C 5.928297519683838 2.303368330001831 -0.09089582413434982
C 5.566490650177002 4.314282417297363 1.9065258502960205
O 7.8443098068237305 2.871060848236084 1.7593538761138916
H 0.7479158043861389 1.6964071989059448 -0.036471713334321976
H 0.7885827422142029 -1.8040459156036377 0.041025955229997635
H 7.84259033203125 -5.985386371612549 0.00797464419156313
H 6.317108631134033 2.9450247287750244 -2.00063419342041
H 4.332688331604004 3.9486582279205322 3.4984688758850098
H 5.648807048797607 6.275345802307129 1.3270790576934814
