19
Generated by QM7 dataset
O 3.902662515640259 -0.3962377905845642 -2.7455074787139893
C 4.415968894958496 0.13088242709636688 -0.16262982785701752
C 5.7366228103637695 2.6763625144958496 0.04943523555994034
C 4.103766918182373 4.900267601013184 -0.7981447577476501
C 5.495833873748779 7.174931049346924 0.2792637348175049
C 6.660887718200684 6.260076999664307 2.7580363750457764
C 6.414788722991943 3.3818161487579346 2.7630252838134766
H 3.067403554916382 -2.0318713188171387 -2.8060355186462402
H 5.6237874031066895 -1.3747568130493164 0.5824514031410217
H 2.62736177444458 0.11839134246110916 0.878250241279602
H 7.456065654754639 2.6520984172821045 -1.113993525505066
H 2.2024190425872803 4.778966426849365 0.017763426527380943
H 3.9176290035247803 5.012196063995361 -2.8546392917633057
H 6.999829292297363 7.762050151824951 -1.019620656967163
H 4.241357803344727 8.79516315460205 0.5565243363380432
H 8.643758773803711 6.841394424438477 2.8807363510131836
H 5.678022384643555 7.070504665374756 4.389720439910889
H 8.158476829528809 2.461500644683838 3.3896963596343994
H 4.908393383026123 2.820680856704712 4.071622848510742
