16
Generated by QM7 dataset
C 6.205728530883789 -2.2198424339294434 0.6190176010131836
O 7.855024814605713 -0.10219638794660568 0.6692087054252625
C 6.690462112426758 2.0821948051452637 -0.38918909430503845
C 8.585233688354492 4.177334308624268 -0.3130142390727997
C 9.334982872009277 5.514995574951172 -2.3341896533966064
C 11.24043083190918 7.595055103302002 -2.226475238800049
H 7.182452201843262 -3.825901746749878 1.475290298461914
H 5.715741157531738 -2.7088847160339355 -1.3293089866638184
H 4.492049217224121 -1.8311445713043213 1.7085013389587402
H 5.0410332679748535 2.6078786849975586 0.7469898462295532
H 6.077661514282227 1.6844640970230103 -2.327273368835449
H 9.379939079284668 4.5868754386901855 1.5368953943252563
H 8.554109573364258 5.092396259307861 -4.187784194946289
H 11.919655799865723 7.936736583709717 -0.30307427048683167
H 10.40708065032959 9.349552154541016 -2.936086416244507
H 12.867334365844727 7.12192440032959 -3.4119949340820312
