18
Generated by QM7 dataset
C 5.611957550048828 -0.9769316911697388 2.635638952255249
N 4.874945640563965 0.3796270787715912 0.3507331609725952
C 5.785623550415039 3.025905132293701 0.2176019698381424
C 4.803608417510986 4.1410136222839355 -2.276175022125244
C 4.848470211029053 4.648405075073242 2.4280524253845215
C 8.679361343383789 3.0409095287323 0.049794282764196396
O 10.063434600830078 4.46523380279541 1.255552887916565
H 4.9664082527160645 -2.9371447563171387 2.4859158992767334
H 4.7431559562683105 -0.1745162010192871 4.330533981323242
H 7.66406774520874 -1.032451868057251 2.877448081970215
H 2.9485397338867188 0.37305083870887756 0.23583781719207764
H 5.4482316970825195 3.0393221378326416 -3.90920090675354
H 5.494321823120117 6.076357841491699 -2.5473508834838867
H 2.733356475830078 4.197554111480713 -2.3224923610687256
H 5.699716567993164 4.074589729309082 4.226315975189209
H 2.7902939319610596 4.542296886444092 2.6240925788879395
H 5.3467912673950195 6.640724182128906 2.148240566253662
H 9.49600601196289 1.699166178703308 -1.324849247932434
