13
Generated by QM7 dataset
O 1.968225359916687 -0.38508838415145874 -0.9382868409156799
C 3.799747943878174 0.1982322782278061 0.37887120246887207
C 5.650829315185547 2.3463594913482666 -0.20938165485858917
C 4.655037879943848 5.105661869049072 -0.21544767916202545
C 6.647092819213867 5.894603729248047 1.771826148033142
C 7.154578685760498 3.058483839035034 2.1668922901153564
O 8.273277282714844 1.8473018407821655 3.7568700313568115
H 4.18292760848999 -0.8839572072029114 2.121255397796631
H 6.8909430503845215 1.9083399772644043 -1.809280514717102
H 2.702705144882202 5.306559085845947 0.4484509229660034
H 4.824414253234863 6.078474044799805 -2.0330429077148438
H 8.278190612792969 6.910747528076172 1.014442801475525
H 5.898798942565918 6.868474006652832 3.4294750690460205
