11
Generated by QM7 dataset
O 1.9621593952178955 -0.43320080637931824 0.28566989302635193
N 4.607586860656738 -0.3297194242477417 0.1864214837551117
C 5.4308085441589355 1.9528807401657104 -0.17272096872329712
C 3.8915696144104004 4.297218322753906 -0.4657041132450104
C 4.89125394821167 6.593273162841797 -0.8324810266494751
C 8.175673484802246 1.9569625854492188 -0.2606499195098877
N 10.373254776000977 2.035386323928833 -0.34200263023376465
H 1.642909049987793 -2.231142997741699 0.5580739378929138
H 1.8573740720748901 4.065027713775635 -0.3670603930950165
H 6.910860538482666 6.940642833709717 -0.9474709033966064
H 3.665426254272461 8.228906631469727 -1.032073974609375
