13
Generated by QM7 dataset
C 1.7246018648147583 0.09242650866508484 0.16075900197029114
C 4.513214111328125 0.20282430946826935 0.13708072900772095
C 6.209035396575928 2.1700479984283447 -0.0859825387597084
C 8.610612869262695 1.0081689357757568 -0.08388493955135345
N 8.44344711303711 -1.5128202438354492 0.09590359777212143
N 5.969682693481445 -1.8978519439697266 0.35375672578811646
O 5.0947394371032715 -4.3381876945495605 0.4867934584617615
H 0.9066150188446045 1.9888044595718384 0.17988303303718567
H 1.044357180595398 -0.9216005206108093 1.8282722234725952
H 1.0354375839233398 -0.8891539573669434 -1.5246310234069824
H 5.778159141540527 4.164994239807129 -0.2591759264469147
H 10.460428237915039 1.881165623664856 -0.23899365961551666
H 5.477635860443115 -4.789492130279541 -1.2448192834854126
