12
Generated by QM7 dataset
O 1.633082389831543 1.07429039478302 0.902098536491394
C 3.8132216930389404 0.41528621315956116 0.4158153533935547
C 6.0708208084106445 2.192857027053833 -0.1214715987443924
N 5.34788703918457 4.8532514572143555 -0.6240820288658142
C 6.311193943023682 5.803443431854248 1.8108679056167603
C 7.191277027130127 3.103081464767456 2.369149684906006
O 8.311128616333008 2.0768280029296875 4.087950229644775
H 4.268815517425537 -1.6161882877349854 0.2926051914691925
H 7.4628119468688965 1.4234929084777832 -1.4381760358810425
H 3.4299662113189697 5.070191860198975 -0.8089539408683777
H 7.844385623931885 7.174779891967773 1.6478978395462036
H 4.858618259429932 6.491851806640625 3.106388568878174
