17
Generated by QM7 dataset
C 2.679990768432617 -0.529293417930603 -1.4371745586395264
N 5.3333740234375 -0.2268049269914627 -0.8930656909942627
C 6.298513889312744 2.143950939178467 -0.48378878831863403
O 4.9747796058654785 4.048058032989502 -0.6043533086776733
N 8.857354164123535 2.210204839706421 0.07522999495267868
C 10.642067909240723 0.19110800325870514 -0.4823525846004486
C 9.9746732711792 4.659403324127197 0.6192821264266968
H 2.3553545475006104 -2.4723854064941406 -2.052771806716919
H 2.104210138320923 0.7863339185714722 -2.9223859310150146
H 1.595268964767456 -0.14713408052921295 0.280019611120224
H 6.117799282073975 -1.5844597816467285 0.18916158378124237
H 9.733790397644043 -1.5859148502349854 -0.9979643821716309
H 11.830158233642578 -0.11873149126768112 1.18119215965271
H 11.829401969909668 0.7849166393280029 -2.0692880153656006
H 8.574273109436035 5.989487171173096 1.3540077209472656
H 10.777788162231445 5.424383163452148 -1.1256343126296997
H 11.468482971191406 4.42808198928833 2.029716968536377
