18
Generated by QM7 dataset
C 5.012895584106445 -2.7084689140319824 0.15499533712863922
C 4.613275051116943 -0.31668031215667725 1.7083691358566284
C 5.889010429382324 2.0037333965301514 0.5197880864143372
C 5.034910678863525 4.41591215133667 1.864309310913086
C 8.762395858764648 1.840820074081421 0.641486406326294
N 10.004871368408203 3.4269237518310547 -0.9696562886238098
O 9.945968627929688 0.4783652722835541 2.090981960296631
H 4.015498161315918 -4.29716157913208 1.0269149541854858
H 7.014115333557129 -3.2114005088806152 0.029120679944753647
H 4.281836032867432 -2.4726309776306152 -1.76593017578125
H 5.313531875610352 -0.6312819123268127 3.6333954334259033
H 2.5729944705963135 0.017725631594657898 1.8579598665237427
H 5.331521987915039 2.1276614665985107 -1.4740997552871704
H 5.566169261932373 4.382029056549072 3.8657939434051514
H 2.9809107780456543 4.638276100158691 1.7464282512664795
H 5.900386333465576 6.096672058105469 1.0215671062469482
H 9.118590354919434 4.414381504058838 -2.340444803237915
H 11.914798736572266 3.332059621810913 -0.9920117259025574
