17
Generated by QM7 dataset
C 1.92011296749115 -1.272031307220459 1.009775161743164
N 4.203261375427246 -0.2040337324142456 -0.13808229565620422
C 5.475330352783203 -2.1528327465057373 -1.6447609663009644
C 3.6122870445251465 1.9973838329315186 -1.7663648128509521
C 2.6756820678710938 4.286673545837402 -0.2469872087240219
O 4.372278213500977 4.800716876983643 1.7849218845367432
H 1.0530877113342285 0.06343810260295868 2.33022141456604
H 2.387083053588867 -2.9542088508605957 2.1272268295288086
H 0.5084308385848999 -1.8092615604400635 -0.4080296754837036
H 5.987124919891357 -3.7734429836273193 -0.45909005403518677
H 7.245172023773193 -1.4240787029266357 -2.4379167556762695
H 4.291624546051025 -2.8323781490325928 -3.202670097351074
H 2.2411773204803467 1.5127068758010864 -3.243129014968872
H 5.364384651184082 2.5832934379577637 -2.7081098556518555
H 0.7907370328903198 3.965155601501465 0.5406884551048279
H 2.5835013389587402 5.965147495269775 -1.4530670642852783
H 5.005204200744629 3.138608455657959 2.2985494136810303
