18
Generated by QM7 dataset
C 2.2214865684509277 -0.2699473798274994 -0.33276188373565674
C 4.953973770141602 0.38161128759384155 -0.242792010307312
O 6.373006820678711 -0.39935582876205444 -2.410383462905884
C 6.192368030548096 2.2887606620788574 -2.0052828788757324
C 4.667642593383789 3.660191535949707 -3.9597887992858887
C 8.630379676818848 3.5048749446868896 -1.1816647052764893
N 10.4808931350708 3.3882789611816406 -3.2212650775909424
H 1.0993292331695557 1.245499610900879 0.5162732005119324
H 1.8743815422058105 -2.002164840698242 0.7442119717597961
H 1.5386905670166016 -0.5904260277748108 -2.258222818374634
H 5.76563024520874 0.07895275950431824 1.6102545261383057
H 3.1682958602905273 2.486199378967285 -4.764509677886963
H 5.858207702636719 4.2799272537231445 -5.534195423126221
H 3.789259910583496 5.335585117340088 -3.122337818145752
H 9.405129432678223 2.548201322555542 0.483883261680603
H 8.294291496276855 5.47865629196167 -0.6584939956665039
H 10.639668464660645 1.5451157093048096 -3.773008346557617
H 12.207290649414062 3.896010637283325 -2.542116403579712
