10
Generated by QM7 dataset
N 1.6958024501800537 0.17738859355449677 -0.01239660382270813
C 3.886410713195801 0.08586915582418442 -0.007237650919705629
C 6.574999809265137 -0.03354264050722122 0.0001511780865257606
C 8.172762870788574 2.0155441761016846 0.004913288168609142
O 10.620600700378418 1.233027458190918 0.013851692900061607
C 10.58386516571045 -1.3351860046386719 0.014645377174019814
C 8.134439468383789 -2.2100346088409424 0.00529123330488801
H 7.8950114250183105 4.040895938873291 0.0033826096914708614
H 12.41519832611084 -2.243558406829834 0.022298768162727356
H 7.555219650268555 -4.1698317527771 0.0035337877925485373
