17
Generated by QM7 dataset
C 2.7013823986053467 -1.8727185726165771 1.6363894939422607
C 5.3373613357543945 -1.3448803424835205 0.7659438252449036
C 6.331376075744629 0.9843583703041077 0.6354204416275024
N 8.73397445678711 1.7586169242858887 -0.1197708398103714
C 10.669393539428711 -0.13868699967861176 -0.7357459664344788
C 9.524144172668457 4.26222038269043 -0.102895587682724
N 8.273579597473145 6.328447341918945 0.18315225839614868
H 1.6310982704162598 -2.788083076477051 0.12251094728708267
H 1.6949520111083984 -0.1518394947052002 2.187943696975708
H 2.7410478591918945 -3.1452980041503906 3.2663159370422363
H 6.433969497680664 -2.9915499687194824 0.2286001741886139
H 5.141302108764648 2.5514326095581055 1.218268632888794
H 9.892054557800293 -1.6742784976959229 -1.8831498622894287
H 11.465856552124023 -0.9300287365913391 1.003879189491272
H 12.21872329711914 0.6768999099731445 -1.8431822061538696
H 11.5810546875 4.449511528015137 -0.39939361810684204
H 6.394776344299316 5.9561333656311035 0.38631671667099
