14
Generated by QM7 dataset
C 1.889726161956787 0.0 0.0
C 4.618490695953369 0.0 0.0
C 6.86756706237793 0.0 0.0
C 9.596331596374512 0.0 0.0
C 10.657602310180664 -1.3981894254684448 -2.2748711109161377
O 10.501680374145508 2.535048723220825 -0.051400549709796906
H 1.1451362371444702 1.9291647672653198 0.021977514028549194
H 1.1450228691101074 -0.9836591482162476 1.6596330404281616
H 1.1451929807662964 -0.9454677700996399 -1.6817617416381836
H 10.3189058303833 -0.8730345964431763 1.730894684791565
H 10.05606460571289 -0.5131929516792297 -4.050817012786865
H 10.051736831665039 -3.3779611587524414 -2.302234411239624
H 12.728401184082031 -1.3424803018569946 -2.257995843887329
H 9.58731746673584 3.3966126441955566 -1.392406940460205
