14
Generated by QM7 dataset
C 1.889726161956787 0.0 0.0
C 4.618490695953369 0.0 0.0
C 6.86756706237793 0.0 0.0
C 9.596331596374512 0.0 0.0
C 10.617918014526367 -1.44180428981781 -2.280993938446045
C 10.507217407226562 2.5722384452819824 0.0
N 11.233268737792969 4.622572422027588 0.0
H 1.1452118158340454 1.9291836023330688 0.02201530896127224
H 1.145060658454895 -0.9836591482162476 1.6596330404281616
H 1.1452118158340454 -0.9454299807548523 -1.6817806959152222
H 10.273439407348633 -0.9555966854095459 1.710126519203186
H 10.00972843170166 -0.5841710567474365 -4.068580150604248
H 9.957722663879395 -3.4057400226593018 -2.2758538722991943
H 12.689642906188965 -1.469035267829895 -2.276420831680298
