15
Generated by QM7 dataset
C 6.981120586395264 -2.161109685897827 -1.476386308670044
C 6.829470157623291 0.02793015167117119 0.3702540397644043
O 9.292747497558594 1.1023906469345093 0.5974746942520142
C 9.581006050109863 3.1324856281280518 2.197713613510132
C 7.778604030609131 4.24564790725708 3.5965077877044678
C 12.201753616333008 4.185308933258057 2.371511697769165
O 12.802043914794922 5.988428592681885 3.694584608078003
H 5.134366989135742 -3.0590507984161377 -1.707858920097351
H 8.336149215698242 -3.5790467262268066 -0.8163805603981018
H 7.643677711486816 -1.5095698833465576 -3.3253509998321533
H 6.184431076049805 -0.6745188236236572 2.2088441848754883
H 5.498006820678711 1.4397445917129517 -0.35362446308135986
H 5.82852029800415 3.631467819213867 3.6072981357574463
H 8.222009658813477 5.849287986755371 4.803475856781006
H 13.599300384521484 3.1909725666046143 1.1864835023880005
