22
Generated by QM7 dataset
C 1.8112457990646362 -0.21650592982769012 -0.03424183651804924
C 4.698690414428711 0.014834349974989891 -0.06931515783071518
N 5.661978721618652 -1.4564685821533203 -2.2179148197174072
C 5.7165350914001465 2.7962088584899902 -0.08248654752969742
C 4.8740763664245605 4.293079853057861 -2.434647560119629
C 4.785599231719971 4.221175670623779 2.2856993675231934
C 8.636199951171875 2.7789177894592285 -0.005272335838526487
H 0.9990981817245483 0.6895988583564758 1.6362760066986084
H 1.2392445802688599 -2.206860065460205 0.034204043447971344
H 0.9425197839736938 0.6185829639434814 -1.7150965929031372
H 5.408471584320068 -0.9084858298301697 1.648200273513794
H 4.9104533195495605 -0.7854646444320679 -3.8593876361846924
H 5.059231281280518 -3.280866861343384 -2.072557210922241
H 5.549010753631592 3.4212169647216797 -4.185403347015381
H 5.625147819519043 6.223907470703125 -2.387706756591797
H 2.8140668869018555 4.445883274078369 -2.547898769378662
H 5.2548747062683105 3.182582378387451 4.0145721435546875
H 2.738232135772705 4.517692565917969 2.2508528232574463
H 5.662772178649902 6.09321403503418 2.424159526824951
H 9.33150577545166 1.7223341464996338 1.634424090385437
H 9.392260551452637 4.703339576721191 0.12528884410858154
H 9.444945335388184 1.9207743406295776 -1.7063660621643066
