14
Generated by QM7 dataset
C 1.6915884017944336 -0.4098060131072998 -0.25859013199806213
C 4.362602710723877 -1.3176493644714355 -0.036244947463274
C 5.06852912902832 -3.6833786964416504 -0.6229104399681091
O 6.0140156745910645 0.4865099787712097 1.0236835479736328
C 8.353402137756348 0.7243131399154663 0.023243632167577744
N 9.982081413269043 2.2244722843170166 1.0400108098983765
O 12.23386001586914 2.130741834640503 -0.3532654047012329
H 1.5881825685501099 1.1853307485580444 -1.5730458498001099
H 0.9939392805099487 0.21660040318965912 1.5854991674423218
H 0.41967037320137024 -1.8892159461975098 -0.9495496153831482
H 3.717771530151367 -5.038860321044922 -1.3642688989639282
H 6.983445167541504 -4.355138301849365 -0.33353665471076965
H 8.711335182189941 -0.4113744795322418 -1.6849743127822876
H 13.308547019958496 3.3169608116149902 0.5644989609718323
