13
Generated by QM7 dataset
C 1.8513835668563843 0.07778112590312958 0.09898385405540466
N 4.502669334411621 0.06423179060220718 -0.5141000151634216
N 6.015432834625244 2.0938920974731445 0.2968381941318512
C 8.43902587890625 1.1601217985153198 0.40863436460494995
C 8.589958190917969 -1.3339766263961792 0.03611266613006592
C 5.952561855316162 -2.1385653018951416 -0.4149649739265442
O 5.265872955322266 -4.3283233642578125 -0.5720201134681702
H 1.069358229637146 1.962197184562683 -0.21694056689739227
H 1.6048877239227295 -0.48465806245803833 2.0722548961639404
H 0.8789305090904236 -1.2902672290802002 -1.1047149896621704
H 5.867259502410889 3.6648404598236084 -0.8183836936950684
H 9.986786842346191 2.450955867767334 0.7432292699813843
H 10.194921493530273 -2.569762945175171 0.035885900259017944
