18
Generated by QM7 dataset
C 1.8336201906204224 0.20531874895095825 0.04452194646000862
C 4.631945610046387 -0.004138500429689884 -0.04561799019575119
C 6.068345069885254 -2.0790011882781982 -0.20393924415111542
C 5.245255947113037 -4.759672164916992 -0.32609114050865173
C 8.793821334838867 -1.3782528638839722 -0.17230522632598877
N 8.858847618103027 1.4034050703048706 -0.35902905464172363
C 6.2559003829956055 2.2898566722869873 0.10514435917139053
H 0.9122464060783386 -1.6422665119171143 -0.06529004126787186
H 1.1484243869781494 1.3479983806610107 -1.5381993055343628
H 1.2366745471954346 1.1071527004241943 1.8083922863006592
H 6.8750505447387695 -6.031344413757324 -0.43150007724761963
H 4.082073211669922 -5.092963218688965 -2.004016876220703
H 4.159797668457031 -5.271561145782471 1.3588075637817383
H 9.687397956848145 -1.9851762056350708 1.592226505279541
H 9.816258430480957 -2.2195777893066406 -1.7616783380508423
H 9.299436569213867 1.845771074295044 -2.1809139251708984
H 5.7218451499938965 3.697608232498169 -1.3146069049835205
H 6.132766246795654 3.1554269790649414 1.9806597232818604
