10
Generated by QM7 dataset
C 3.421405792236328 -0.17440281808376312 0.8907601833343506
O 2.69696044921875 0.7791340947151184 -1.6037349700927734
C 4.158134460449219 2.8011977672576904 -1.2263566255569458
C 4.904047012329102 5.094966411590576 -2.0284321308135986
S 6.817394733428955 6.185545921325684 0.4720346927642822
N 6.329826831817627 3.6434109210968018 2.444077253341675
C 5.046607971191406 2.0445892810821533 1.0526341199874878
H 4.4040632247924805 -1.9929240942001343 0.8276244401931763
H 1.9039558172225952 -0.2869360148906708 2.2917275428771973
H 4.498965263366699 6.192122459411621 -3.699120044708252
