17
Generated by QM7 dataset
C 2.04215145111084 0.6709094643592834 1.7028889656066895
C 4.443672180175781 0.21297213435173035 0.2664702832698822
C 4.95947265625 -2.0199849605560303 -0.8268118500709534
C 6.367677688598633 2.27842378616333 0.13759095966815948
C 5.479714393615723 4.824830055236816 -0.9324097633361816
C 6.7497992515563965 5.940694332122803 1.4059562683105469
O 6.977057933807373 3.4639246463775635 2.5473885536193848
H 2.4397308826446533 1.4548245668411255 3.572716236114502
H 0.971168041229248 -1.0761045217514038 1.9800550937652588
H 0.8270197510719299 1.9925838708877563 0.6796211004257202
H 3.631089925765991 -3.581125497817993 -0.7341775298118591
H 6.721264362335205 -2.3702645301818848 -1.8196172714233398
H 8.137142181396484 1.6424744129180908 -0.7502590417861938
H 3.4419283866882324 5.148672103881836 -1.0083767175674438
H 6.329146385192871 5.369278907775879 -2.733602285385132
H 8.607853889465332 6.792771816253662 1.091845989227295
H 5.572651386260986 7.203654766082764 2.53871488571167
