15
Generated by QM7 dataset
C 1.7937657833099365 0.06700968742370605 0.052080851048231125
C 4.597476959228516 0.005555795039981604 -0.031048201024532318
C 6.217520236968994 2.050995349884033 -0.20962731540203094
N 8.634479522705078 1.1653562784194946 -0.23971176147460938
N 10.80577564239502 2.683241128921509 -0.3617502748966217
C 8.63442325592041 -1.4029138088226318 -0.10514435917139053
C 6.153515338897705 -2.189379930496216 0.035621337592601776
H 1.08583664894104 2.0097615718841553 0.10043894499540329
H 1.1001229286193848 -0.910696804523468 1.7370929718017578
H 1.0052398443222046 -0.8646630644798279 -1.6171709299087524
H 5.826158046722412 4.053160190582275 -0.3304186165332794
H 10.536828994750977 4.35302209854126 0.551252007484436
H 12.2898530960083 1.8481521606445312 0.5291988849639893
H 10.374785423278809 -2.472139835357666 -0.13194067776203156
H 5.528620719909668 -4.132868766784668 0.15665829181671143
