19
Generated by QM7 dataset
C 1.830861210823059 -0.25248631834983826 0.015193398110568523
C 4.726979732513428 -0.006916397716850042 -0.009580911137163639
C 5.714985370635986 -1.5328325033187866 -2.2778379917144775
N 5.554906845092773 2.6725263595581055 -0.10164836794137955
C 4.585647106170654 4.141996383666992 2.042945146560669
C 8.317705154418945 2.912729263305664 -0.16400933265686035
H 1.0121184587478638 0.46948355436325073 1.7721096277236938
H 1.2584631443023682 -2.237908124923706 -0.12538333237171173
H 0.9755144119262695 0.7645642757415771 -1.5728001594543457
H 5.453012466430664 -0.898867130279541 1.7186492681503296
H 5.20695161819458 -0.6302047967910767 -4.070545673370361
H 4.915990352630615 -3.443364381790161 -2.284414291381836
H 7.769779205322266 -1.7578421831130981 -2.21708345413208
H 2.526998519897461 4.3203864097595215 1.9665623903274536
H 5.304744720458984 6.086089611053467 1.9846848249435425
H 5.121327877044678 3.311272621154785 3.8600680828094482
H 9.103132247924805 2.1537396907806396 -1.9198105335235596
H 9.216875076293945 1.9605152606964111 1.4402170181274414
H 8.882676124572754 4.906069278717041 -0.1299186646938324
