15
Generated by QM7 dataset
O 4.13220739364624 -0.17854133248329163 -1.1857653856277466
C 3.7539031505584717 1.6780389547348022 0.13001315295696259
O 5.527259826660156 3.272608757019043 1.0692070722579956
C 8.092978477478027 2.646656036376953 0.398051917552948
C 10.140780448913574 4.3813676834106445 1.5700033903121948
C 11.80765151977539 2.0133330821990967 1.857487440109253
C 9.350666999816895 0.45321300625801086 1.8805042505264282
H 1.8725106716156006 2.323399305343628 0.7390719056129456
H 8.323997497558594 2.4866905212402344 -1.6598409414291382
H 9.588545799255371 5.2472405433654785 3.3693628311157227
H 10.893383026123047 5.845527648925781 0.3228597044944763
H 13.014676094055176 1.6414728164672852 0.2158634215593338
H 12.953108787536621 1.920188546180725 3.573472023010254
H 9.449197769165039 -1.358486294746399 0.8923475742340088
H 8.564030647277832 0.1474742293357849 3.7726681232452393
