17
Generated by QM7 dataset
C 1.5330402851104736 0.4552917182445526 -0.15157493948936462
C 4.2992401123046875 0.1155189573764801 0.4410242736339569
O 5.069303512573242 -1.9748960733413696 1.1556620597839355
C 6.059898376464844 2.432852268218994 0.1645384579896927
C 4.955031871795654 5.143721103668213 0.4029841125011444
C 7.444141387939453 5.9125752449035645 1.7002243995666504
C 7.739260196685791 3.12315034866333 2.4735381603240967
H 1.324868083000183 1.4172568321228027 -1.9672237634658813
H 0.6293544173240662 1.546230673789978 1.3495100736618042
H 0.6170900464057922 -1.3928226232528687 -0.2873895466327667
H 7.203031539916992 2.2407426834106445 -1.5626333951950073
H 3.302901029586792 5.305217266082764 1.6410949230194092
H 4.552425861358643 6.10460901260376 -1.3809740543365479
H 8.90157413482666 6.572146415710449 0.38571199774742126
H 7.270759105682373 7.263540267944336 3.251727342605591
H 9.670144081115723 2.388878345489502 2.4287705421447754
H 6.890054702758789 2.6694459915161133 4.308802127838135
