17
Generated by QM7 dataset
C 2.8363277912139893 0.34636789560317993 2.896780014038086
C 3.5354697704315186 0.9247941970825195 0.17419496178627014
C 5.233691215515137 3.2489304542541504 0.022960172966122627
C 4.043125629425049 5.807506561279297 -0.30485060811042786
C 1.5660349130630493 6.299628734588623 -0.1543150395154953
N 7.653050899505615 2.8122148513793945 0.19124028086662292
N 9.212187767028809 4.83382511138916 0.12256763875484467
H 1.648030161857605 -1.3428961038589478 2.9899814128875732
H 1.7998507022857666 1.9141792058944702 3.7590811252593994
H 4.52733039855957 0.011036000214517117 4.040668964385986
H 1.841254711151123 1.1798694133758545 -0.983167827129364
H 4.556432247161865 -0.6884083151817322 -0.6330204606056213
H 5.341915607452393 7.344269275665283 -0.7027513384819031
H 0.15284104645252228 4.872772216796875 0.24475732445716858
H 0.8861492872238159 8.21683120727539 -0.4284576177597046
H 11.024492263793945 4.216923713684082 -0.14915607869625092
H 9.254178047180176 5.6946330070495605 1.8532732725143433
