15
Generated by QM7 dataset
C 1.889726161956787 0.0 0.0
C 4.618490695953369 0.0 0.0
C 6.86756706237793 0.0 0.0
C 9.524521827697754 0.0 0.0
C 10.743603706359863 -2.139037609100342 -0.6099091172218323
C 10.939719200134277 2.265441417694092 0.6458895206451416
C 9.961898803710938 4.514215469360352 1.28714919090271
H 1.1454575061798096 1.929259181022644 0.024906590580940247
H 1.1451362371444702 -0.9859645962715149 1.6582913398742676
H 1.1450984477996826 -0.942954421043396 -1.6831034421920776
H 9.716461181640625 -3.848238229751587 -1.0972316265106201
H 12.79006290435791 -2.255331516265869 -0.643092691898346
H 12.990808486938477 2.1036620140075684 0.5996856689453125
H 7.940402507781982 4.8498311042785645 1.382920503616333
H 11.192904472351074 6.092458248138428 1.7370929718017578
