15
Generated by QM7 dataset
C -2.617856502532959 1.4789375066757202 1.1213067770004272
C -2.256805419921875 -0.5664643049240112 -0.8213127851486206
O -0.6698134541511536 -2.6471095085144043 -0.05209974944591522
C 1.8575252294540405 -2.3727023601531982 -0.9617383480072021
C 2.962958335876465 0.055444564670324326 0.10399162769317627
O 1.6668896675109863 2.2472622394561768 -0.8145475387573242
C -1.0348517894744873 1.9863855838775635 -1.1790757179260254
H -4.457070350646973 2.373703956604004 1.227566123008728
H -1.6883946657180786 1.2773792743682861 2.930776357650757
H -3.8545689582824707 -1.0154821872711182 -2.025106191635132
H 2.9465365409851074 -4.008808135986328 -0.3220093250274658
H 1.8292548656463623 -2.3596253395080566 -3.031593084335327
H 2.8571524620056152 0.07524889707565308 2.1721456050872803
H 4.948890209197998 0.23551656305789948 -0.4438210725784302
H -1.8594715595245361 3.207583427429199 -2.60768985748291
