15
Generated by QM7 dataset
C 1.889726161956787 0.0 0.0
C 4.618490695953369 0.0 0.0
C 6.86756706237793 0.0 0.0
C 9.596331596374512 0.0 0.0
O 10.511772155761719 -1.3852826356887817 -2.1128838062286377
C 10.585168838500977 2.6472227573394775 -0.2185468226671219
C 12.048534393310547 3.7928881645202637 1.5082471370697021
H 1.145230770111084 1.9292025566101074 0.022166486829519272
H 1.1450417041778564 -0.9837725162506104 1.659576416015625
H 1.1451551914215088 -0.9452788233757019 -1.6818373203277588
H 10.323724746704102 -0.9236225485801697 1.7030401229858398
H 9.541491508483887 -0.8233914971351624 -3.56557297706604
H 10.074110984802246 3.6909375190734863 -1.9121761322021484
H 12.628983497619629 2.8417134284973145 3.2301278114318848
H 12.702058792114258 5.715098857879639 1.218249797821045
