12
Generated by QM7 dataset
C 1.315570592880249 -0.24162037670612335 0.2959689199924469
C 4.108321189880371 -0.5101126432418823 -0.18118694424629211
O 5.068207740783691 -2.5896806716918945 -0.5778215527534485
C 5.622936725616455 1.8961323499679565 -0.22502858936786652
C 8.408600807189941 1.4634795188903809 -0.507977306842804
O 9.993230819702148 2.7932987213134766 0.547661542892456
H 1.0065059661865234 0.6907894015312195 2.1123170852661133
H 0.4341645836830139 -2.110011577606201 0.3498449921607971
H 0.4594680070877075 0.8605057001113892 -1.2265645265579224
H 5.290514945983887 2.925258159637451 1.5376890897750854
H 4.990332126617432 3.0321412086486816 -1.831957221031189
H 8.989843368530273 0.02951752208173275 -1.9066014289855957
