8
Generated by QM7 dataset
O 1.835547685623169 -0.0005669178208336234 0.0
C 4.147212028503418 -0.0004724315367639065 0.0
C 5.524633407592773 -2.3591907024383545 0.0
C 6.6657819747924805 -4.322786331176758 0.0
C 5.524500846862793 2.3583405017852783 0.0
C 6.665290832519531 4.322087287902832 0.0
H 7.665144920349121 -6.070707321166992 0.0
H 7.66391658782959 6.070499420166016 0.0
