12
Generated by QM7 dataset
O 1.8745516538619995 0.15713073313236237 0.0
N 4.512363433837891 -0.0817684531211853 0.0
C 5.499367713928223 2.139547824859619 0.0
C 8.206910133361816 2.07975697517395 0.0
C 10.455986976623535 2.07975697517395 0.0
C 13.11294174194336 2.07975697517395 0.0
C 14.44251537322998 4.22975492477417 -0.0
H 1.3212398290634155 -1.6020153760910034 0.0
H 4.472320556640625 3.9483370780944824 -0.0
H 14.08407211303711 0.27127018570899963 -0.0
H 13.529248237609863 6.067060470581055 0.0
H 16.49131965637207 4.188747882843018 0.0
