15
Generated by QM7 dataset
O 1.1746159791946411 0.05778782442212105 -1.3613208532333374
C 3.509580373764038 -0.8118641376495361 -0.3509410321712494
C 5.408018112182617 1.3681994676589966 -0.23005525767803192
N 4.572230339050293 3.6815454959869385 -0.21028871834278107
N 7.958487033843994 0.9677098393440247 -0.12613922357559204
C 9.353483200073242 -1.2032642364501953 -0.033769406378269196
C 11.8715238571167 -1.3541399240493774 0.0581846684217453
H 1.5239884853363037 0.5700358748435974 -3.0960705280303955
H 4.215506553649902 -2.345773696899414 -1.5391441583633423
H 3.182223320007324 -1.5161083936691284 1.5640885829925537
H 2.620898962020874 3.602668285369873 -0.24354790151119232
H 8.957887649536133 2.6059322357177734 -0.058316949754953384
H 8.252131462097168 -2.937654972076416 -0.03186078369617462
H 13.056797981262207 0.318947970867157 0.06392943859100342
H 12.808733940124512 -3.177649974822998 0.128274604678154
