17
Generated by QM7 dataset
N 5.0326619148254395 -2.40747332572937 -0.23181270062923431
C 3.8681559562683105 0.04336921498179436 0.2861423194408417
C 5.889029026031494 2.0912086963653564 0.30827102065086365
N 8.233139991760254 1.5549612045288086 1.791101336479187
C 6.213173866271973 3.6841723918914795 -2.0412821769714355
C 5.005468845367432 4.820785999298096 0.25605788826942444
O 6.563925743103027 6.545368671417236 1.670347809791565
H 3.6486454010009766 -3.7421112060546875 -0.3332909941673279
H 6.130214691162109 -2.900861978530884 1.2674959897994995
H 2.9196646213531494 -0.014815452508628368 2.12579083442688
H 2.4285247325897217 0.4336354434490204 -1.1507865190505981
H 7.752998352050781 0.8698598146438599 3.5256619453430176
H 9.157196998596191 0.11344026029109955 0.895182192325592
H 5.01986837387085 3.297968864440918 -3.6600027084350586
H 8.095322608947754 4.311599254608154 -2.5506200790405273
H 2.995896339416504 5.2117133140563965 0.17098242044448853
H 8.087158203125 5.637582302093506 2.19930100440979
