15
Generated by QM7 dataset
C 5.972460746765137 0.252958744764328 2.9828760623931885
N 4.678225040435791 0.7558526396751404 0.6006683707237244
N 5.2828240394592285 3.079573392868042 -0.4959019422531128
C 4.477195739746094 5.543341636657715 0.4966956079006195
C 6.892114639282227 6.6422553062438965 -0.7085339426994324
C 7.7088541984558105 3.863715171813965 -0.991312563419342
O 9.682710647583008 2.767636299133301 -1.341648817062378
H 5.371735572814941 -1.589732050895691 3.7057719230651855
H 5.517225742340088 1.670158863067627 4.418576717376709
H 8.024457931518555 0.1712091863155365 2.7411234378814697
H 2.7694692611694336 0.6643332242965698 0.8544018864631653
H 4.400359630584717 5.6412482261657715 2.5600876808166504
H 2.703026533126831 6.209261894226074 -0.32403135299682617
H 6.631011009216309 7.615331649780273 -2.512239694595337
H 8.077577590942383 7.760519504547119 0.5567322373390198
