17
Generated by QM7 dataset
C 2.11331844329834 -0.5366066098213196 0.3839167654514313
C 4.967711925506592 -0.27019304037094116 0.1366838961839676
C 5.797112941741943 2.4904701709747314 -0.07723310589790344
O 5.0894293785095215 3.827394723892212 2.162168025970459
C 8.679153442382812 2.7148184776306152 -0.41350987553596497
N 9.427446365356445 5.391634464263916 -0.37138786911964417
H 1.5892407894134521 -2.5358424186706543 0.460545152425766
H 1.1469881534576416 0.31847554445266724 -1.2321014404296875
H 1.419826865196228 0.36721158027648926 2.110427141189575
H 5.603188991546631 -1.3239610195159912 -1.5291285514831543
H 5.843826770782471 -1.141300082206726 1.8013814687728882
H 4.833881855010986 3.3958189487457275 -1.6727666854858398
H 6.247434616088867 5.271617889404297 2.2214674949645996
H 9.285660743713379 1.8345838785171509 -2.184183359146118
H 9.647429466247559 1.7690860033035278 1.1525628566741943
H 8.707442283630371 6.276555061340332 -1.9283521175384521
H 11.345688819885254 5.502655506134033 -0.5474536418914795
