15
Generated by QM7 dataset
C 1.9385566711425781 -0.04336921498179436 -0.0126422680914402
N 4.661009311676025 0.08543451875448227 0.0007747877389192581
C 6.114605903625488 2.2119622230529785 0.008106925524771214
C 8.579092025756836 1.3892511129379272 0.02008778788149357
C 8.417860984802246 -1.2781918048858643 0.018953952938318253
C 10.52688980102539 -3.1211471557617188 0.02891281060874462
N 6.01314640045166 -2.0653951168060303 0.006519555114209652
H 1.1586477756500244 1.868693470954895 0.001851931563578546
H 1.325945258140564 -1.0669771432876587 1.6732958555221558
H 1.341875672340393 -1.0354565382003784 -1.722938895225525
H 5.302798271179199 4.084794044494629 0.004251883830875158
H 10.2625732421875 2.544875383377075 0.02851596660912037
H 9.836836814880371 -5.0720062255859375 0.0438605435192585
H 11.711804389953613 -2.84879994392395 1.7028510570526123
H 11.706777572631836 -2.872194766998291 -1.65216863155365
