16
Generated by QM7 dataset
C 1.7934446334838867 -0.0189728494733572 0.11710632592439651
C 4.6557183265686035 0.03331587091088295 -0.005574692040681839
N 6.0393757820129395 1.8814302682876587 1.6047931909561157
C 4.575593948364258 2.8505196571350098 3.742980480194092
C 7.86460542678833 -0.03751106560230255 2.5302865505218506
C 6.083160877227783 -2.0469512939453125 1.4250991344451904
O 5.901217937469482 -4.327529430389404 1.5992374420166016
H 1.0629898309707642 -1.5314151048660278 -1.0933388471603394
H 0.9917282462120056 1.759486198425293 -0.5723035335540771
H 1.072022795677185 -0.3744114339351654 2.022101402282715
H 5.277400493621826 0.13105250895023346 -1.9847415685653687
H 3.0514352321624756 4.082772254943848 3.0790441036224365
H 5.794958591461182 4.016064643859863 4.944808483123779
H 3.758873224258423 1.3663287162780762 4.9357757568359375
H 9.700020790100098 0.025341227650642395 1.5799055099487305
H 8.147157669067383 -0.1627054214477539 4.573401927947998
