18
Generated by QM7 dataset
C 5.785566806793213 -2.206047296524048 -0.9386458396911621
C 4.672971248626709 0.11763545125722885 0.3314957618713379
C 6.5022454261779785 2.2800679206848145 0.3179464340209961
C 6.67700719833374 4.0104522705078125 -1.940824270248413
C 5.534573078155518 4.95790433883667 0.4898737072944641
C 6.902565002441406 6.860102653503418 2.0532820224761963
H 4.434374809265137 -3.7708919048309326 -0.890986979007721
H 7.517160415649414 -2.8164100646972656 0.016308337450027466
H 6.257412433624268 -1.816442608833313 -2.9154505729675293
H 4.190127372741699 -0.33945149183273315 2.2926156520843506
H 2.9087798595428467 0.635741651058197 -0.6232883930206299
H 8.238336563110352 1.8234156370162964 1.3093534708023071
H 5.418468475341797 3.6882541179656982 -3.5256431102752686
H 8.53456974029541 4.684328556060791 -2.483912706375122
H 3.508333206176758 5.26375675201416 0.5308051705360413
H 8.951424598693848 6.576643943786621 2.008949041366577
H 6.278803825378418 6.741767883300781 4.021148204803467
H 6.501602649688721 8.767573356628418 1.3630216121673584
