15
Generated by QM7 dataset
C 0.6589664220809937 0.5284619331359863 -0.02430187724530697
C 3.1441452503204346 -0.8425344228744507 -0.018349241465330124
C 3.249969959259033 -3.3769595623016357 -0.11517880856990814
O 5.178265571594238 0.7771498560905457 0.09161392599344254
C 7.661384582519531 -0.2774495780467987 0.09911613911390305
C 9.52522087097168 1.7813881635665894 0.21287764608860016
C 11.052082061767578 3.455345392227173 0.30488842725753784
H 0.561380922794342 1.8193905353546143 -1.6382791996002197
H 0.45249491930007935 1.635198950767517 1.7115249633789062
H -0.9520440101623535 -0.7641863226890564 -0.14909939467906952
H 1.5293176174163818 -4.493844509124756 -0.19868580996990204
H 5.000744342803955 -4.4358673095703125 -0.1147252768278122
H 7.964553356170654 -1.3768166303634644 -1.6302478313446045
H 7.898979663848877 -1.505563735961914 1.7502832412719727
H 12.400704383850098 4.9505157470703125 0.3863734006881714
