17
Generated by QM7 dataset
C 2.2341854572296143 0.08150389045476913 -0.16646596789360046
C 5.073763370513916 -0.10608922690153122 0.08418729901313782
C 6.189609050750732 -2.620086431503296 0.21909484267234802
C 4.935794353485107 -4.818971633911133 0.1366649866104126
C 6.447896957397461 2.039997100830078 0.17761535942554474
C 9.241554260253906 2.384777784347534 0.4021904170513153
O 9.73664379119873 3.710420608520508 2.681766986846924
H 1.5811716318130493 2.0457797050476074 -0.24337783455848694
H 1.2947458028793335 -0.8045130968093872 1.4520277976989746
H 1.5894675254821777 -0.8388116359710693 -1.9055242538452148
H 8.230229377746582 -2.749608278274536 0.404722660779953
H 2.8993313312530518 -4.944770812988281 -0.04603372886776924
H 5.959648132324219 -6.594350337982178 0.2523540258407593
H 5.444886684417725 3.8363897800445557 0.06196412071585655
H 9.933874130249023 3.530424118041992 -1.1740490198135376
H 10.324254035949707 0.6302047967910767 0.4248293340206146
H 8.954920768737793 2.7369470596313477 4.031277179718018
