14
Generated by QM7 dataset
C 1.891011118888855 -0.03938189148902893 0.36473605036735535
C 4.762109756469727 0.0 0.0
O 5.844639301300049 -1.4039342403411865 2.0591211318969727
C 5.4467010498046875 -1.4746099710464478 -2.353332757949829
C 6.4784159660339355 -0.6339842081069946 -4.512798309326172
C 5.672995567321777 2.5722384452819824 0.0
N 6.399047374725342 4.622572422027588 0.0
H 0.9016828536987305 0.9383057355880737 -1.1707987785339355
H 1.3584296703338623 0.8741117119789124 2.1483540534973145
H 1.1719892024993896 -1.9806408882141113 0.47186461091041565
H 5.80340576171875 -0.3223116993904114 3.5457119941711426
H 5.055017471313477 -3.493650197982788 -2.2277414798736572
H 6.960673809051514 1.3366600275039673 -4.828552722930908
H 6.886124134063721 -1.9383487701416016 -6.046594619750977
