18
Generated by QM7 dataset
C 1.9219837188720703 0.003495993325486779 0.1468695104122162
C 4.782405376434326 0.019615357741713524 -0.1382334679365158
C 6.088924407958984 1.9742913246154785 -1.9300718307495117
C 5.420282363891602 0.12629039585590363 -4.114425182342529
C 6.1120734214782715 -1.8481143712997437 -2.0320792198181152
N 8.845014572143555 -1.36986243724823 -1.6148276329040527
C 8.873492240905762 1.4088475704193115 -1.5190374851226807
H 1.3132652044296265 1.6023932695388794 1.3120557069778442
H 1.3084652423858643 -1.7331244945526123 1.0908821821212769
H 0.9148731231689453 0.12748092412948608 -1.6520930528640747
H 5.572500228881836 -0.029366344213485718 1.7849408388137817
H 5.412137985229492 3.9146432876586914 -1.994738221168518
H 6.6313323974609375 0.1813192218542099 -5.793314456939697
H 3.4586901664733887 0.13090133666992188 -4.7681193351745605
H 5.483153820037842 -3.7992377281188965 -2.199660062789917
H 9.510878562927246 -2.077753782272339 0.04939744248986244
H 10.063490867614746 2.1902682781219482 -3.019102096557617
H 9.543476104736328 2.1022069454193115 0.3121638596057892
