16
Generated by QM7 dataset
C 1.8714524507522583 -0.023905035108327866 0.10722306370735168
C 4.737146377563477 -0.0070297811180353165 0.1231345534324646
C 5.865804195404053 2.2047624588012695 1.579300880432129
C 8.474212646484375 1.2379028797149658 2.349439859390259
C 8.08432388305664 -1.5814173221588135 2.5098209381103516
O 9.562392234802246 -3.1228668689727783 3.368739128112793
N 5.790895462036133 -2.1528139114379883 1.40263032913208
H 1.1584398746490479 -1.6801177263259888 -0.9084480404853821
H 1.1328152418136597 1.6709147691726685 -0.81976318359375
H 1.1035056114196777 -0.10007989406585693 2.0279784202575684
H 5.460136890411377 -0.03161511942744255 -1.8194661140441895
H 4.7563652992248535 2.612149477005005 3.283909320831299
H 5.961537837982178 3.9376790523529053 0.45580193400382996
H 9.887557029724121 1.6372209787368774 0.8945018649101257
H 9.070987701416016 2.0110466480255127 4.167998790740967
H 5.37207555770874 -3.983391523361206 1.0321305990219116
