17
Generated by QM7 dataset
C 1.9116469621658325 -0.12423059344291687 0.07764884829521179
C 4.780213356018066 -0.011810787953436375 -0.04000550135970116
O 5.541848659515381 0.0038928359281271696 -2.671278953552246
C 5.997197151184082 2.0424537658691406 1.6596330404281616
C 7.993465900421143 0.08583135902881622 2.4584391117095947
C 6.165571689605713 -2.0317389965057373 1.621328353881836
O 7.315470218658447 -4.088876247406006 0.2469872087240219
H 1.2263566255569458 -0.15297332406044006 2.0303027629852295
H 1.205626368522644 -1.8263825178146362 -0.8628111481666565
H 1.0745927095413208 1.5180548429489136 -0.8610159158706665
H 7.3579888343811035 0.3273761570453644 -2.653458833694458
H 4.799753189086914 2.68900465965271 3.2202255725860596
H 6.746209144592285 3.695756196975708 0.672459065914154
H 9.739686012268066 0.17066116631031036 1.3450881242752075
H 8.484284400939941 0.09679177403450012 4.463400840759277
H 5.011289119720459 -2.7649149894714355 3.179520845413208
H 6.515586853027344 -4.028858184814453 -1.4138175249099731
