17
Generated by QM7 dataset
C 2.7985332012176514 0.4276639223098755 -0.706417441368103
C 5.350022792816162 -0.2142760455608368 0.3223683834075928
C 5.850875377655029 -2.92667555809021 1.0276330709457397
N 8.017616271972656 -3.6554296016693115 -0.5572802424430847
C 9.527186393737793 -1.3845078945159912 -1.0913735628128052
C 7.664653778076172 0.7379191517829895 -0.9586580395698547
N 6.8625969886779785 1.834035873413086 1.4484939575195312
H 2.6782143115997314 2.4030702114105225 -1.3171579837799072
H 1.347885012626648 0.12077239900827408 0.7376545667648315
H 2.3490428924560547 -0.7657548189163208 -2.3369109630584717
H 4.241698265075684 -4.163917064666748 0.6318488121032715
H 6.328749656677246 -3.087132215499878 3.0363173484802246
H 9.084121704101562 -4.990464210510254 0.32240617275238037
H 11.022696495056152 -1.146931529045105 0.3204597532749176
H 10.390753746032715 -1.528618335723877 -2.963317394256592
H 7.5104899406433105 1.8791625499725342 -2.642819881439209
H 7.936604022979736 1.1645437479019165 2.9022603034973145
