20
Generated by QM7 dataset
C 4.348637580871582 -1.2804595232009888 2.740083932876587
C 5.162372589111328 -0.4378495514392853 0.10259322822093964
N 3.0510573387145996 -0.6695866584777832 -1.6662659645080566
C 6.049826145172119 2.2607171535491943 0.13109029829502106
C 8.446206092834473 3.1240575313568115 0.03928740695118904
C 10.772553443908691 1.4951512813568115 -0.04781007021665573
C 8.978315353393555 5.921116828918457 0.023810548707842827
H 5.934401512145996 -1.1704963445663452 4.067729949951172
H 3.6880650520324707 -3.243072509765625 2.7183332443237305
H 2.8167879581451416 -0.1029333844780922 3.488264322280884
H 6.6525349617004395 -1.7008291482925415 -0.5712453126907349
H 1.505922794342041 0.2185279279947281 -0.9401576519012451
H 2.561467170715332 -2.525070905685425 -1.815289855003357
H 4.536627769470215 3.654919385910034 0.22393254935741425
H 10.380133628845215 -0.5141000151634216 0.21278315782546997
H 12.081945419311523 2.0477261543273926 1.457281231880188
H 11.735218048095703 1.7266616821289062 -1.8643282651901245
H 7.246362686157227 7.053024768829346 0.06355149298906326
H 10.026773452758789 6.439789772033691 -1.6830278635025024
H 10.108674049377441 6.445099830627441 1.6757524013519287
