12
Generated by QM7 dataset
C 1.8662935495376587 -0.16502977907657623 -0.09811457991600037
C 4.714356422424316 0.060433439910411835 0.12555339932441711
C 5.471399784088135 2.796170949935913 0.12254873663187027
N 6.4521484375 3.827092170715332 2.108858823776245
O 6.959105491638184 6.369378566741943 1.586727499961853
H 1.297977328300476 -2.153040647506714 -0.12001650780439377
H 1.1836488246917725 0.7243320345878601 -1.837853193283081
H 0.9228099584579468 0.7639217972755432 1.4926379919052124
H 5.6276421546936035 -0.8586537837982178 -1.4866853952407837
H 5.372718334197998 -0.8506790995597839 1.8620415925979614
H 5.13674783706665 3.876697540283203 -1.632175326347351
H 7.680791854858398 6.96165657043457 3.1766295433044434
