17
Generated by QM7 dataset
C 4.99346923828125 0.8832390904426575 2.9171135425567627
O 4.526158809661865 3.171225070953369 1.5894297361373901
C 6.500903606414795 4.301734924316406 0.2943815290927887
C 5.723999500274658 6.863012790679932 -0.7148833870887756
O 4.685519218444824 8.329894065856934 1.2948781251907349
C 8.820769309997559 3.2822463512420654 0.009505322203040123
C 11.051836967468262 4.391818046569824 -1.329535722732544
H 3.2379889488220215 0.3266202509403229 3.863828420639038
H 6.439789772033691 1.1575895547866821 4.37518835067749
H 5.521515369415283 -0.6420344710350037 1.6194008588790894
H 4.259291648864746 6.630009651184082 -2.1586341857910156
H 7.265524387359619 7.95463228225708 -1.5406559705734253
H 3.7696635723114014 7.127612113952637 2.345301389694214
H 9.229044914245605 1.4378169775009155 0.8061193823814392
H 10.657583236694336 6.1665544509887695 -2.303746223449707
H 11.744950294494629 3.0494699478149414 -2.74690580368042
H 12.578452110290527 4.730456829071045 0.028610453009605408
