19
Generated by QM7 dataset
C 1.7576531171798706 -0.6728559136390686 -0.08615261316299438
N 4.47865104675293 -1.0497617721557617 -0.37144458293914795
C 5.3294243812561035 -0.9979454874992371 -2.993326187133789
C 5.795619964599609 1.2139034271240234 -1.241720199584961
C 8.411927223205566 1.7452377080917358 -0.2868415415287018
C 8.3792724609375 2.579343795776367 2.4814560413360596
N 10.9147367477417 3.2489495277404785 3.348235607147217
H 1.371204137802124 0.26520416140556335 1.716910719871521
H 0.8079712986946106 -2.508176803588867 -0.055350080132484436
H 0.8924798369407654 0.4631718695163727 -1.5895053148269653
H 3.936016082763672 -0.7992785573005676 -4.479614734649658
H 6.886010646820068 -2.2513062953948975 -3.4394149780273438
H 4.707213401794434 2.928225040435791 -1.5244042873382568
H 9.241157531738281 3.2395575046539307 -1.461854338645935
H 9.626378059387207 0.07745987176895142 -0.499114453792572
H 7.630959987640381 1.0590970516204834 3.67527174949646
H 7.129917621612549 4.2140703201293945 2.718559980392456
H 12.063955307006836 1.71146821975708 3.1876466274261475
H 10.843059539794922 3.6596248149871826 5.2283430099487305
