20
Generated by QM7 dataset
C 5.713133335113525 -1.5290151834487915 2.261794328689575
C 4.88532018661499 0.02167515829205513 -0.025530200451612473
C 5.8130621910095215 2.804126739501953 -0.07027891278266907
C 4.82853364944458 4.081165790557861 -2.4923598766326904
N 4.747785568237305 4.203866004943848 2.0706675052642822
C 8.677867889404297 2.9150726795196533 -0.10387824475765228
C 10.202688217163086 4.160950183868408 1.4936206340789795
H 4.999138355255127 -3.463679075241089 2.088752031326294
H 4.968316555023193 -0.7499378323554993 4.025532245635986
H 7.772727012634277 -1.635917067527771 2.406604051589966
H 2.812082529067993 -0.02150508388876915 -0.1172764003276825
H 5.549899101257324 -0.9534991383552551 -1.7332568168640137
H 5.533193588256836 3.1222243309020996 -4.1897873878479
H 5.426235198974609 6.063110828399658 -2.6075387001037598
H 2.7577152252197266 4.0459980964660645 -2.581082344055176
H 5.3252482414245605 3.3847451210021973 3.7117245197296143
H 2.829845905303955 4.056164741516113 2.047499418258667
H 9.577056884765625 1.8576574325561523 -1.625712513923645
H 9.467357635498047 5.292820453643799 3.0373189449310303
H 12.239283561706543 4.099949836730957 1.2608442306518555
