16
Generated by QM7 dataset
C 1.603224754333496 -0.47262051701545715 0.21786652505397797
C 4.409109115600586 -0.12421169877052307 0.29549646377563477
C 5.733504772186279 2.027865171432495 -0.045580193400382996
C 4.564293384552002 4.591372966766357 -0.46944576501846313
C 8.603885650634766 2.009629249572754 0.0615861751139164
C 9.729406356811523 2.5995450019836426 -2.4148809909820557
N 10.644316673278809 3.077664613723755 -4.349582672119141
H 1.1424150466918945 -2.0523180961608887 -1.0367037057876587
H 0.5822057127952576 1.1776584386825562 -0.4816533923149109
H 0.8998875617980957 -0.9285169243812561 2.108027219772339
H 5.438934326171875 -1.876025676727295 0.6373857259750366
H 2.535275459289551 4.634269714355469 -0.09297452867031097
H 4.8634934425354 5.209597110748291 -2.4204368591308594
H 5.4251389503479 5.985235214233398 0.796292781829834
H 9.305389404296875 0.1653699278831482 0.6961750984191895
H 9.241554260253906 3.383932590484619 1.4751769304275513
