16
Generated by QM7 dataset
C 1.3985296487808228 2.416184902191162 -0.3811955451965332
C -1.3703348636627197 2.3353803157806396 0.4157019555568695
C -2.6137936115264893 -0.10573017597198486 -0.4678584039211273
O -1.2557607889175415 -2.253479480743408 0.44227150082588196
C 1.279004454612732 -2.3205270767211914 -0.48269274830818176
C 2.748077630996704 -0.007010884117335081 0.3974471986293793
H 1.5152391195297241 2.6388134956359863 -2.438804864883423
H 2.335550308227539 4.058054447174072 0.46349313855171204
H -2.384645462036133 3.974245309829712 -0.33703264594078064
H -1.4647456407546997 2.4345531463623047 2.4843661785125732
H -4.541333198547363 -0.2209845781326294 0.2709300220012665
H -2.727933168411255 -0.18848128616809845 -2.5336313247680664
H 2.1691977977752686 -4.039535045623779 0.2455132156610489
H 1.2535687685012817 -2.4560203552246094 -2.5499775409698486
H 2.8965911865234375 -0.045258939266204834 2.4647510051727295
H 4.669494152069092 -0.039589762687683105 -0.36912021040916443
