19
Generated by QM7 dataset
C 3.7084741592407227 0.5757617354393005 1.7234680652618408
O 6.3569440841674805 1.0083767175674438 1.8111134767532349
C 7.214596271514893 2.3489296436309814 -0.36377227306365967
C 10.039491653442383 2.7153851985931396 -0.1508568376302719
C 11.532639503479004 0.2944193184375763 -0.10448295623064041
C 11.040592193603516 5.057455062866211 -0.0472242571413517
C 13.75977611541748 5.797245025634766 0.17158713936805725
H 3.16013240814209 -0.44661787152290344 3.43198823928833
H 3.217731237411499 -0.5761396884918213 0.0784047394990921
H 2.68182373046875 2.369546413421631 1.6698187589645386
H 6.221753120422363 4.163387775421143 -0.4825793504714966
H 6.783153057098389 1.2628095149993896 -2.0754106044769287
H 11.06782341003418 -0.8558191657066345 -1.7619428634643555
H 11.081826210021973 -0.7988439202308655 1.5926989316940308
H 13.574658393859863 0.5823380351066589 -0.12793445587158203
H 9.756939888000488 6.667426109313965 -0.09709412604570389
H 15.056053161621094 4.199462890625 0.29118791222572327
H 14.02724838256836 6.949940204620361 1.8681076765060425
H 14.302335739135742 6.935370445251465 -1.4679204225540161
