12
Generated by QM7 dataset
O 1.623029112815857 0.3871482014656067 -0.10179954767227173
C 3.9244508743286133 0.18250975012779236 -0.10007989406585693
C 5.537861347198486 2.3721354007720947 -0.03231431543827057
C 6.8997111320495605 4.189749717712402 0.02269561029970646
C 8.525272369384766 6.349234104156494 0.09216194599866867
C 8.8955078125 7.8704447746276855 -2.288269281387329
N 7.385937690734863 8.845354080200195 -0.20435498654842377
H 4.904727458953857 -1.6524899005889893 -0.14889152348041534
H 10.104422569274902 6.247831344604492 1.3976414203643799
H 7.855081081390381 7.352981090545654 -3.9736595153808594
H 10.708511352539062 8.760902404785156 -2.6105620861053467
H 8.360980033874512 10.158373832702637 0.8169475197792053
