15
Generated by QM7 dataset
C 0.762428879737854 2.9224236011505127 0.7020899653434753
C 2.774628162384033 0.9068417549133301 0.030802536755800247
C 1.2074782848358154 -1.0058823823928833 -1.4787296056747437
O -0.4914799630641937 0.7073056101799011 -2.786590099334717
C -1.609838843345642 1.8183133602142334 -0.5386853218078613
C -2.3895020484924316 -0.5480961799621582 0.8169286251068115
C -0.6480627059936523 -2.292766809463501 0.23672598600387573
H 1.2795146703720093 4.724712371826172 -0.1746106892824173
H 0.5637620091438293 3.2066006660461426 2.740405321121216
H 3.6770479679107666 0.08868484944105148 1.7022464275360107
H 4.233798980712891 1.7652876377105713 -1.16074538230896
H 2.2233762741088867 -2.228119373321533 -2.7909743785858154
H -3.127288818359375 3.1327123641967773 -1.0071295499801636
H -3.9789507389068604 -0.7522243857383728 2.0731430053710938
H -0.5322602391242981 -4.2046217918396 0.924038290977478
