17
Generated by QM7 dataset
C 2.2437851428985596 0.5509307384490967 2.9140143394470215
N 4.395843029022217 1.9822849035263062 3.804377794265747
C 6.494648456573486 2.2528748512268066 2.3247032165527344
O 8.201713562011719 3.9927456378936768 3.1301424503326416
C 8.451459884643555 4.490499496459961 5.781787395477295
N 6.851901531219482 1.033963680267334 0.25014305114746094
C 9.19497299194336 1.5783748626708984 -1.091316819190979
H 0.8403233885765076 0.3980708122253418 4.4252848625183105
H 2.79231595993042 -1.3665744066238403 2.36393404006958
H 1.3556517362594604 1.4936773777008057 1.3006985187530518
H 3.912961483001709 3.5592801570892334 4.766191482543945
H 10.323819160461426 5.308127403259277 6.098543167114258
H 8.306631088256836 2.747605085372925 6.887636184692383
H 7.028722763061523 5.867259502410889 6.37708854675293
H 9.309112548828125 0.3632620573043823 -2.7615323066711426
H 10.855720520019531 1.1759387254714966 0.07668508589267731
H 9.253989219665527 3.540647506713867 -1.745691180229187
