12
Generated by QM7 dataset
C 3.540099620819092 -0.1468128263950348 -2.429356336593628
O 4.616241931915283 0.558508574962616 -0.06336251646280289
N 6.029417037963867 2.7986276149749756 -0.4227506220340729
C 8.59587287902832 2.6490180492401123 -0.08526444435119629
O 9.887368202209473 4.527481555938721 0.3338201344013214
C 9.8101167678833 0.21208396553993225 -0.3322327435016632
C 10.824767112731934 -1.8108679056167603 -0.5510063171386719
H 2.4435102939605713 -1.8754775524139404 -2.151528835296631
H 5.023874759674072 -0.5222069025039673 -3.820704936981201
H 2.2751357555389404 1.338663101196289 -3.115610361099243
H 5.23350191116333 4.397770881652832 0.2671694755554199
H 11.726128578186035 -3.598151922225952 -0.7429080605506897
