16
Generated by QM7 dataset
C 1.5311505794525146 0.5247580409049988 -0.09484535455703735
C 4.321236610412598 0.11644492298364639 0.30485060811042786
O 5.105151653289795 -2.0332319736480713 0.7941951751708984
C 6.102341651916504 2.407737970352173 0.1062404066324234
C 5.063502311706543 5.1193437576293945 0.35050639510154724
N 7.337844371795654 5.8005900382995605 1.8215259313583374
C 7.6486663818359375 3.0979037284851074 2.4779412746429443
H 1.2256386280059814 1.584875464439392 -1.8411790132522583
H 0.738580584526062 1.543736219406128 1.516505241394043
H 0.5780105590820312 -1.3013032674789429 -0.2681521475315094
H 7.321479320526123 2.2146456241607666 -1.5696443319320679
H 3.3132190704345703 5.3169145584106445 1.4399901628494263
H 4.847317695617676 6.151606559753418 -1.4281983375549316
H 8.780707359313965 6.485011100769043 0.7380703091621399
H 9.606252670288086 2.43353271484375 2.4927377700805664
H 6.761270046234131 2.5836713314056396 4.278547763824463
