15
Generated by QM7 dataset
C 2.3648221492767334 0.17512091994285583 0.29045090079307556
N 4.987913131713867 0.9733979105949402 0.1340382695198059
N 6.977870464324951 -0.7105181217193604 -0.06347589939832687
C 6.530364513397217 -3.098848581314087 -0.21977515518665314
C 5.539297580718994 3.561736822128296 0.14223968982696533
C 8.307217597961426 4.239128112792969 -0.022128693759441376
O 3.916041612625122 5.228853225708008 0.25326108932495117
H 1.0963435173034668 1.7697663307189941 0.6354204416275024
H 2.145179271697998 -1.1632208824157715 1.8504576683044434
H 1.827214002609253 -0.7098945379257202 -1.4996110200881958
H 8.140883445739746 -4.410715103149414 -0.36475494503974915
H 4.6443986892700195 -3.9775521755218506 -0.23322999477386475
H 9.353275299072266 3.378527879714966 1.5378402471542358
H 8.517600059509277 6.29155969619751 0.11850472539663315
H 9.081305503845215 3.6255340576171875 -1.8366626501083374
