17
Generated by QM7 dataset
C 2.2445223331451416 -0.3021294176578522 0.10350029915571213
C 5.053997039794922 -0.44058963656425476 0.26259633898735046
C 6.653763294219971 -2.0478017330169678 -1.4585095643997192
C 5.598011493682861 -3.6706039905548096 -3.504194736480713
N 6.77672815322876 0.7283193469047546 -1.5818519592285156
N 5.435948371887207 1.5362906455993652 -3.582221508026123
C 6.411840915679932 3.549586057662964 -4.555638313293457
H 1.5875022411346436 1.5201524496078491 0.8310448527336121
H 1.41090726852417 -1.7856589555740356 1.2814233303070068
H 1.4878191947937012 -0.531277596950531 -1.8054065704345703
H 5.673562526702881 -0.2658277750015259 2.209184408187866
H 8.315173149108887 -2.9200236797332764 -0.6338897347450256
H 3.8749589920043945 -2.931683301925659 -4.374734878540039
H 5.151298999786377 -5.542850017547607 -2.742351770401001
H 7.00551700592041 -3.9222776889801025 -5.00098991394043
H 5.509496688842773 4.426305294036865 -6.212833881378174
H 8.132040023803711 4.478084087371826 -3.8243331909179688
