12
Generated by QM7 dataset
N 1.889726161956787 0.0 0.0
C 4.064819812774658 0.0 0.0
C 6.721774578094482 0.0 0.0
C 8.192510604858398 -2.0400350093841553 -0.12636598944664001
C 10.881099700927734 -1.266362190246582 -0.07519220560789108
O 10.868136405944824 1.45100736618042 -0.0818251445889473
C 8.293951034545898 2.3084516525268555 0.1493450552225113
H 7.559754848480225 -3.979196310043335 -0.2395983785390854
H 11.83637523651123 -1.9278796911239624 1.6344996690750122
H 11.908751487731934 -1.9310544729232788 -1.7414581775665283
H 7.90534782409668 3.6330740451812744 -1.389553427696228
H 8.08570384979248 3.276388168334961 1.9647293090820312
