17
Generated by QM7 dataset
C 2.138716459274292 0.34287190437316895 -0.5729082822799683
C 4.8070855140686035 -0.13109029829502106 0.42893004417419434
C 5.9640703201293945 -2.6268703937530518 -0.5053505897521973
C 7.13486909866333 -2.386194944381714 -3.0740742683410645
C 7.575080394744873 -0.10531444102525711 -4.087307453155518
C 6.973240375518799 2.314650058746338 -2.7388179302215576
O 6.457912445068359 1.9497627019882202 -0.10933955758810043
H 1.4528592824935913 2.190646171569824 0.059734243899583817
H 0.8336337804794312 -1.1110833883285522 0.10529553890228271
H 2.0673224925994873 0.3481631577014923 -2.639739513397217
H 4.667604446411133 -0.23084893822669983 2.4942872524261475
H 4.533717632293701 -4.122003078460693 -0.5143834352493286
H 7.462471961975098 -3.2167673110961914 0.7996376156806946
H 7.646077632904053 -4.097757816314697 -4.085927963256836
H 8.415290832519531 0.045088864862918854 -5.953771114349365
H 8.594852447509766 3.591651201248169 -2.863426446914673
H 5.3683905601501465 3.2625744342803955 -3.635133981704712
