14
Generated by QM7 dataset
C 2.9348957538604736 -0.24233847856521606 -0.802736759185791
O 5.467979431152344 0.5403293967247009 -0.35868892073631287
C 5.916203498840332 3.063019275665283 0.03683076053857803
C 4.176502704620361 4.905086517333984 0.059658654034137726
N 8.393898963928223 3.685589551925659 0.43813300132751465
C 10.403849601745605 2.0639400482177734 0.4799904525279999
O 12.576051712036133 2.779862642288208 0.8537782430648804
H 2.9426627159118652 -2.2915008068084717 -1.0782966613769531
H 2.1812164783477783 0.6272946000099182 -2.5218961238861084
H 1.733237862586975 0.17491304874420166 0.8289472460746765
H 2.182973861694336 4.555883884429932 -0.24260303378105164
H 4.694231033325195 6.8625969886779785 0.3879418671131134
H 8.86447811126709 5.5129170417785645 0.7430403232574463
H 9.929868698120117 0.0666317418217659 0.15219853818416595
