15
Generated by QM7 dataset
O 1.885360836982727 0.07725200802087784 0.05353594198822975
C 4.562327861785889 0.03350484371185303 0.011943069286644459
C 5.632441997528076 2.142836093902588 1.6248810291290283
C 8.249032974243164 1.1640145778656006 2.2459962368011475
N 7.878872871398926 -1.538652777671814 2.715914487838745
C 5.696277141571045 -2.3460195064544678 1.2049082517623901
H 1.2927049398422241 -1.4178048372268677 -0.8361282348632812
H 5.210258483886719 0.23846453428268433 -1.9465312957763672
H 4.499740123748779 2.413066864013672 3.341583728790283
H 5.675660133361816 3.9479212760925293 0.6166365146636963
H 9.522292137145996 1.4348690509796143 0.6356093883514404
H 9.063712120056152 2.1089344024658203 3.8927602767944336
H 9.458098411560059 -2.5325732231140137 2.246563196182251
H 6.272114276885986 -3.6854004859924316 -0.26703721284866333
H 4.3298540115356445 -3.3121798038482666 2.4242351055145264
