13
Generated by QM7 dataset
C 1.889726161956787 0.0 0.0
C 4.138802528381348 0.0 0.0
C 6.86756706237793 0.0 0.0
C 8.005428314208984 -2.250455856323242 -1.4782193899154663
N 8.808542251586914 -1.2529828548431396 -4.008279323577881
C 8.610593795776367 1.174370288848877 -3.728637456893921
N 7.814338684082031 2.108083963394165 -1.4701124429702759
H -0.1247597187757492 -0.0077667743898928165 -0.01218873355537653
H 7.608490943908691 0.0565217100083828 1.9304686784744263
H 6.672831058502197 -3.815394878387451 -1.7254143953323364
H 9.693066596984863 -2.9734463691711426 -0.5169912576675415
H 9.003751754760742 2.57133150100708 -5.219877243041992
H 6.737195014953613 3.6886508464813232 -1.507642388343811
