18
Generated by QM7 dataset
C 1.896094560623169 0.005706972908228636 0.03641502186655998
C 4.764736652374268 -0.016421720385551453 0.12583686411380768
N 5.760395526885986 -2.0131819248199463 1.7811235189437866
C 7.353415489196777 -0.5132496356964111 3.53263521194458
C 8.6642427444458 1.4906349182128906 1.7989436388015747
C 5.8581318855285645 2.3009116649627686 1.423587441444397
C 5.615963935852051 1.7443116903305054 4.309104919433594
H 1.1815701723098755 -1.7084447145462036 -0.8767762184143066
H 1.2227851152420044 1.6384871006011963 -1.0422028303146362
H 1.0401241779327393 0.11937399953603745 1.9158799648284912
H 5.518510341644287 -0.20892812311649323 -1.7961468696594238
H 6.756337642669678 -3.281282663345337 0.7264296412467957
H 8.43513298034668 -1.5158060789108276 4.9660491943359375
H 9.679725646972656 0.7828001379966736 0.14044444262981415
H 9.879507064819336 2.8620657920837402 2.7679953575134277
H 5.463897228240967 4.1928300857543945 0.7188329100608826
H 6.474730968475342 3.1481704711914062 5.569665431976318
H 3.7446625232696533 1.2778706550598145 5.052125930786133
