12
Generated by QM7 dataset
O 4.3870368003845215 7.021938800811768 1.810622215270996
C 5.182649612426758 7.034486770629883 -0.35948261618614197
N 7.369534969329834 5.899649620056152 -1.2096514701843262
C 8.969793319702148 4.572532653808594 0.3406798243522644
C 11.080578804016113 3.486865997314453 -0.5219045877456665
C 12.726058006286621 2.084500312805176 1.237260341644287
O 14.671757698059082 1.0713424682617188 0.49711135029792786
H 4.176351547241211 8.000004768371582 -1.9073573350906372
H 7.7927961349487305 6.067834854125977 -3.0703704357147217
H 8.408997535705566 4.460963249206543 2.319260835647583
H 11.692131996154785 3.560999870300293 -2.4714972972869873
H 12.113447189331055 2.001673460006714 3.2270853519439697
