13
Generated by QM7 dataset
C 2.232862710952759 -0.06538452208042145 0.4931807219982147
N 4.944279670715332 -0.1054089218378067 0.5609651803970337
C 6.586073398590088 2.0203440189361572 -0.14462074637413025
C 8.536346435546875 0.03751106560230255 -1.0030288696289062
C 6.3194899559021 -1.828914761543274 -0.7798332571983337
O 5.799796104431152 -3.9021143913269043 -1.5779780149459839
H 1.5069620609283447 -1.9577940702438354 0.8970907926559448
H 1.5994641780853271 0.49794283509254456 -1.3927470445632935
H 1.5436794757843018 1.2716912031173706 1.906884789466858
H 7.151989936828613 3.1823744773864746 1.4650479555130005
H 5.7959980964660645 3.197265386581421 -1.6507325172424316
H 9.262266159057617 0.2825707495212555 -2.918379545211792
H 10.075736045837402 -0.3405097424983978 0.3212156593799591
