17
Generated by QM7 dataset
O 1.5871809720993042 -0.37656572461128235 0.7233116030693054
C 4.199028015136719 0.1872718632221222 0.21348236501216888
C 5.4474568367004395 2.1525681018829346 1.9775984287261963
C 7.878438472747803 0.5544834136962891 1.8330532312393188
C 6.176362037658691 -1.753042221069336 1.235540747642517
C 7.166616439819336 -3.5722815990448 -0.6542232036590576
C 9.225926399230957 -4.947246551513672 -0.13787442445755005
H 1.222993016242981 -1.8680509328842163 -0.2866714596748352
H 4.449038982391357 0.6673189997673035 -1.7897974252700806
H 4.609268665313721 2.2456371784210205 3.8697056770324707
H 5.605192184448242 4.067049503326416 1.2177584171295166
H 9.148598670959473 1.1288657188415527 0.29980504512786865
H 8.962631225585938 0.4367157220840454 3.5884575843811035
H 5.504961013793945 -2.7262511253356934 2.9442877769470215
H 6.191422939300537 -3.8003337383270264 -2.447497606277466
H 10.233490943908691 -4.769952297210693 1.639696478843689
H 9.957874298095703 -6.294772148132324 -1.5054125785827637
