19
Generated by QM7 dataset
C 2.7933363914489746 -0.08358258754014969 -2.3049557209014893
C 3.7950801849365234 0.7084771990776062 0.26265302300453186
C 5.548084735870361 2.966718912124634 0.00011338356853229925
C 4.353475570678711 5.578566074371338 0.12549671530723572
C 4.324449062347412 6.550754547119141 2.8243467807769775
N 7.944540977478027 2.501997470855713 -0.32251957058906555
N 9.476920127868652 4.528426170349121 -0.5360397100448608
H 1.5398811101913452 -1.7167216539382935 -2.1169278621673584
H 4.341456890106201 -0.5980794429779053 -3.577723979949951
H 1.7311592102050781 1.4496089220046997 -3.198739528656006
H 4.834864139556885 -0.858181357383728 1.129923939704895
H 2.2313129901885986 1.199711561203003 1.5255380868911743
H 2.413444757461548 5.454071044921875 -0.585304856300354
H 5.356088638305664 6.8989176750183105 -1.1099873781204224
H 3.3091182708740234 5.252474784851074 4.075931549072266
H 3.3935325145721436 8.39565658569336 2.914675712585449
H 6.243617534637451 6.76161003112793 3.5679919719696045
H 11.189899444580078 3.952343225479126 -1.2243157625198364
H 9.885100364685059 5.248960018157959 1.2104263305664062
