16
Generated by QM7 dataset
C 2.0185487270355225 0.14106805622577667 0.13022102415561676
C 4.532167911529541 0.026097116991877556 -0.1138182058930397
C 6.025845527648926 -2.411592960357666 -0.1426365226507187
N 7.873959541320801 -2.504775285720825 -2.2089009284973145
C 9.373797416687012 -0.1695084273815155 -2.1821422576904297
C 7.645453929901123 2.149261236190796 -2.3413705825805664
O 5.9073405265808105 2.258354902267456 -0.2606877088546753
H 1.0601552724838257 1.9527673721313477 0.17256979644298553
H 0.8732991218566895 -1.5508415699005127 0.27877241373062134
H 4.761713027954102 -4.041557312011719 -0.32329434156417847
H 7.007973670959473 -2.6075196266174316 1.673201322555542
H 9.033740997314453 -4.016064643859863 -1.9397850036621094
H 10.505913734436035 -0.09473197162151337 -0.4476005434989929
H 10.675800323486328 -0.17916493117809296 -3.789675712585449
H 8.79079818725586 3.871727705001831 -2.2751736640930176
H 6.582653045654297 2.1812920570373535 -4.122721195220947
