10
Generated by QM7 dataset
O 1.906922698020935 -0.03494103625416756 -0.4713732898235321
C 4.203279972076416 -0.08305346220731735 -0.14235307276248932
O 5.522441387176514 -2.288647413253784 0.045523501932621
N 8.17780876159668 -2.271923303604126 0.4215412139892578
C 9.27396297454834 -0.1053900271654129 0.5795223116874695
C 8.059720039367676 2.3583405017852783 0.41097763180732727
C 5.575939178466797 2.3084137439727783 0.05686185881495476
H 11.336637496948242 -0.05963975563645363 0.8713149428367615
H 9.165833473205566 4.066067218780518 0.5713208913803101
H 4.457958221435547 4.014326095581055 -0.09989092499017715
