15
Generated by QM7 dataset
C 3.012185573577881 -1.0669015645980835 -1.9132721424102783
C 3.877434492111206 0.43558186292648315 -0.06651835888624191
C 5.992491722106934 2.3129680156707764 -0.21278315782546997
C 7.091631889343262 3.0695576667785645 -2.8182430267333984
N 7.551477909088135 5.863536834716797 -2.700002908706665
C 6.276007175445557 6.540417671203613 -0.7197021842002869
N 5.058041095733643 4.739300727844238 0.6485729217529297
H 1.4556938409805298 -2.3581702709198 -1.558154821395874
H 3.7961196899414062 -1.0647095441818237 -3.8073067665100098
H 2.9749391078948975 0.2784889340400696 1.7756623029708862
H 7.534281253814697 1.7047219276428223 1.0328865051269531
H 5.796942710876465 2.7061822414398193 -4.3907976150512695
H 8.869693756103516 2.0769600868225098 -3.1845664978027344
H 6.153174877166748 8.490690231323242 -0.0005480205873027444
H 4.923757076263428 5.008549213409424 2.536787271499634
