13
Generated by QM7 dataset
C 2.093986749649048 -0.11066236346960068 0.07330247759819031
C 4.935511112213135 -0.1535780429840088 0.08643607050180435
C 6.05778169631958 -2.732562780380249 0.2673584520816803
O 4.726431846618652 -4.628241539001465 0.39911016821861267
C 6.289291858673096 1.990713119506836 -0.057485468685626984
C 9.075088500976562 2.278348207473755 -0.06338141113519669
O 10.573395729064941 0.5316555500030518 0.107978954911232
H 1.3462220430374146 1.814760684967041 -0.05699414014816284
H 1.3476771116256714 -0.949851930141449 1.8114914894104004
H 1.3600926399230957 -1.1726884841918945 -1.5440574884414673
H 8.123592376708984 -2.8902227878570557 0.27546536922454834
H 5.310092449188232 3.7916789054870605 -0.18923717737197876
H 9.726212501525879 4.2530741691589355 -0.2368960678577423
