19
Generated by QM7 dataset
N 6.115588188171387 1.8732099533081055 4.784182071685791
C 5.306483268737793 3.4233522415161133 2.638737916946411
C 6.3032002449035645 2.4216272830963135 0.10168616473674774
C 9.163527488708496 2.465639114379883 -0.17068006098270416
C 10.471293449401855 0.30982059240341187 -0.49622318148612976
C 10.471614837646484 4.990237712860107 -0.07192298024892807
N 9.569025039672852 6.645637512207031 -2.074352264404297
H 5.628360271453857 2.755976676940918 6.424653053283691
H 8.038630485534668 1.744179368019104 4.779306411743164
H 5.9087958335876465 5.381731986999512 2.9394500255584717
H 3.2365338802337646 3.4299473762512207 2.5907390117645264
H 5.465900421142578 3.541308879852295 -1.426648736000061
H 5.5878825187683105 0.49284058809280396 -0.1720406711101532
H 9.528244972229004 -1.5107982158660889 -0.5638186931610107
H 12.513426780700684 0.3035466969013214 -0.7030726075172424
H 12.523309707641602 4.771596431732178 -0.2607822120189667
H 10.142784118652344 5.884909629821777 1.764758586883545
H 9.954245567321777 5.813213348388672 -3.769474506378174
H 10.591612815856934 8.276886940002441 -2.0443058013916016
