14
Generated by QM7 dataset
N 1.8014380931854248 0.6018588542938232 -0.04478650912642479
C 4.1311492919921875 0.31664252281188965 -1.0917704105377197
O 4.600765228271484 -1.260107159614563 -2.711738109588623
C 6.0818190574646 2.044097900390625 -0.09053678065538406
C 7.91749906539917 3.3254644870758057 -1.8621550798416138
C 5.886553764343262 4.839512825012207 -0.6030116081237793
O 6.697737216949463 6.448955059051514 1.4217543601989746
H 1.4589630365371704 1.8577330112457275 1.3526092767715454
H 0.40939027070999146 -0.5745145678520203 -0.6121200919151306
H 6.847951889038086 1.463725209236145 1.7204066514968872
H 7.738919734954834 2.9430782794952393 -3.867910385131836
H 9.848024368286133 3.5442569255828857 -1.2210465669631958
H 4.339472770690918 5.4989142417907715 -1.7814069986343384
H 7.472903251647949 7.986530780792236 0.7737294435501099
