14
Generated by QM7 dataset
C 3.1766674518585205 -0.23048989474773407 0.04773448035120964
C 1.347355842590332 -2.2812962532043457 0.9015694260597229
O -0.6649190187454224 -2.395379066467285 -0.8899665474891663
N -2.847174882888794 -1.1503708362579346 -0.016724076122045517
C -2.546746015548706 1.2449326515197754 0.4629828929901123
C -0.12780217826366425 2.8072071075439453 0.4122626483440399
O 1.9667513370513916 1.9524461030960083 -0.984963059425354
H 4.383824348449707 -0.9757034182548523 -1.4604558944702148
H 4.420636177062988 0.33756178617477417 1.6019208431243896
H 2.3005526065826416 -4.116201400756836 0.954595148563385
H 0.6295055747032166 -1.916182279586792 2.812025785446167
H -4.238598823547363 2.2672178745269775 1.1262578964233398
H 0.4291757047176361 3.169221878051758 2.375688076019287
H -0.6649190187454224 4.644644260406494 -0.37724602222442627
