15
Generated by QM7 dataset
O 5.7059526443481445 -1.908207654953003 -0.9539337754249573
C 4.409732818603516 0.1989314705133438 0.10484200716018677
C 6.114624500274658 2.523313522338867 0.12128262221813202
C 6.673549175262451 3.550870895385742 -2.550922393798828
N 6.432835578918457 6.365164756774902 -2.3893885612487793
C 5.417882442474365 6.728067398071289 -0.19091902673244476
N 4.889439582824707 4.692567825317383 1.2860342264175415
H 4.514820098876953 -3.309760808944702 -0.9878165125846863
H 3.852471351623535 -0.2927752733230591 2.0367658138275146
H 2.6847150325775146 0.5375893115997314 -0.9890637397766113
H 7.904025077819824 2.115283727645874 1.084683895111084
H 5.3327317237854 2.8535430431365967 -3.9665918350219727
H 8.586442947387695 3.0426857471466064 -3.1538963317871094
H 4.9819793701171875 8.595684051513672 0.6182239055633545
H 5.114336013793945 4.913344860076904 3.174910068511963
