19
Generated by QM7 dataset
C 4.97476053237915 -0.9298586249351501 2.8546957969665527
C 5.2454071044921875 0.013738309033215046 0.15376701951026917
N 6.255314826965332 2.5888493061065674 0.11799450218677521
C 4.362961769104004 4.598742961883545 0.1636313796043396
C 8.8150053024292 3.132145404815674 0.2986901104450226
C 9.676531791687012 5.867013931274414 0.40610215067863464
N 10.599454879760742 1.471869945526123 0.4116201400756836
H 4.181926250457764 -2.838916778564453 2.871098756790161
H 3.7200958728790283 0.2986145317554474 3.948185920715332
H 6.802957534790039 -0.9838292002677917 3.8195900917053223
H 3.3957056999206543 -0.05158952251076698 -0.7819497585296631
H 6.4469709396362305 -1.2696691751480103 -0.9410080313682556
H 2.4307358264923096 3.8563830852508545 0.1729288399219513
H 4.551934719085693 5.799191474914551 -1.509324312210083
H 4.574233055114746 5.761378288269043 1.860888957977295
H 8.89864444732666 6.9238433837890625 -1.1895825862884521
H 11.740093231201172 5.985121726989746 0.32338884472846985
H 9.041243553161621 6.719620704650879 2.1782495975494385
H 9.88190746307373 -0.3092536926269531 0.3417758643627167
