12
Generated by QM7 dataset
O 4.827097415924072 -3.149549961090088 -0.06714197248220444
N 6.300384521484375 -1.0460389852523804 -0.8206324577331543
C 6.733188629150391 0.723179280757904 1.0402942895889282
O 5.68076229095459 0.599194347858429 3.1115474700927734
C 8.46712589263916 2.8723838329315186 0.28376126289367676
C 10.978533744812012 1.9855730533599854 -0.510755181312561
C 13.037504196166992 1.2736754417419434 -1.15715491771698
H 4.403496742248535 -2.732449531555176 1.69289231300354
H 7.573663234710693 -1.365553855895996 -2.2205982208251953
H 8.654435157775879 4.150972366333008 1.901574730873108
H 7.5532732009887695 3.9340696334838867 -1.2409075498580933
H 14.870652198791504 0.65410977602005 -1.7140949964523315
