13
Generated by QM7 dataset
C 1.9311110973358154 2.050485134124756 2.01577091217041
N 4.346426963806152 2.231861114501953 2.2970376014709473
O 5.494775772094727 1.8825262784957886 -0.06623490154743195
C 8.172460556030273 2.120971918106079 0.21025092899799347
C 8.949724197387695 4.878876209259033 0.4715244770050049
C 8.548233032226562 6.247963905334473 -1.9054486751556396
N 8.274033546447754 7.34071683883667 -3.7894299030303955
H 0.6748589873313904 2.2690508365631104 3.6592466831207275
H 1.026612639427185 1.6818562746047974 0.1737225204706192
H 9.046761512756348 1.2605040073394775 -1.4583204984664917
H 8.79327392578125 1.0293338298797607 1.8596794605255127
H 10.955347061157227 4.97523307800293 0.978424608707428
H 7.8798747062683105 5.80637264251709 1.9816045761108398
