15
Generated by QM7 dataset
C 3.4446873664855957 0.11818347126245499 -1.3447668552398682
C 3.5082008838653564 -0.1660880297422409 1.4835861921310425
C 1.0233056545257568 0.04607152193784714 0.1307690441608429
C -0.6584372520446777 2.2754759788513184 0.4062722325325012
O -3.157562255859375 1.336338758468628 -0.04593924060463905
C -3.0267176628112793 -1.3507006168365479 0.2606688141822815
O -0.4842045307159424 -2.1846556663513184 -0.034619782119989395
H 4.057657718658447 1.9005165100097656 -2.1412675380706787
H 3.915682554244995 -1.518206000328064 -2.4856324195861816
H 4.020618915557861 -1.9943981170654297 2.2516465187072754
H 4.1561503410339355 1.4256093502044678 2.5949151515960693
H -0.5933173298835754 3.059126377105713 2.320073366165161
H -0.2587035000324249 3.7720823287963867 -0.9599809050559998
H -4.233912467956543 -2.2573156356811523 -1.1486700773239136
H -3.6865532398223877 -1.8462624549865723 2.1566689014434814
