15
Generated by QM7 dataset
C 1.8452798128128052 0.08258102834224701 0.2524107098579407
N 4.5804314613342285 0.010658055543899536 -0.15233083069324493
C 5.149314880371094 -1.425307035446167 -2.450483560562134
C 5.589091777801514 2.597409725189209 -0.2927185893058777
C 8.369559288024902 2.637982130050659 -0.17141705751419067
C 10.636021614074707 2.6793293952941895 -0.06810572743415833
H 1.3947690725326538 1.0561679601669312 2.023707628250122
H 1.0837390422821045 -1.8351130485534668 0.4276450276374817
H 0.85003662109375 1.041125774383545 -1.2908719778060913
H 4.3843159675598145 -3.345211982727051 -2.3093020915985107
H 7.189463138580322 -1.6396209001541138 -2.72224497795105
H 4.353777885437012 -0.5370601415634155 -4.1443963050842285
H 4.890686988830566 3.6990065574645996 1.3206162452697754
H 4.932374000549316 3.5642125606536865 -2.0052640438079834
H 12.646500587463379 2.7024595737457275 0.03324028104543686
