17
Generated by QM7 dataset
C 1.5530335903167725 1.2157931327819824 0.4114122688770294
C 4.208930492401123 0.7313618063926697 -0.5708862543106079
C 6.1139445304870605 2.272301197052002 0.8301377892494202
O 8.233763694763184 3.056102991104126 -0.6536562442779541
C 6.553060054779053 5.021361351013184 0.19105131924152374
C 7.247912406921387 6.749704837799072 2.2400245666503906
C 5.649468421936035 7.854193210601807 3.863752841949463
H 0.1915426403284073 0.003949527628719807 -0.563535213470459
H 1.002159595489502 3.1850388050079346 0.1037270650267601
H 1.4304471015930176 0.8341062068939209 2.439976692199707
H 4.270743370056152 1.1402796506881714 -2.602738618850708
H 4.670741558074951 -1.2754895687103271 -0.34461045265197754
H 6.471707344055176 1.5994263887405396 2.7271015644073486
H 5.371792316436768 5.874156951904297 -1.2528694868087769
H 9.257144927978516 7.147095203399658 2.4272208213806152
H 3.62799072265625 7.5256266593933105 3.7652792930603027
H 6.345303535461426 9.110199928283691 5.3282341957092285
