8
Generated by QM7 dataset
C 1.8438247442245483 -0.02403731644153595 -0.0
C 4.370482921600342 0.006538452580571175 -0.0
C 5.739211559295654 2.313497304916382 0.0
C 6.889922618865967 4.268759250640869 0.0
H 0.8187994360923767 -1.7997184991836548 -0.0
H 0.745307981967926 1.7079722881317139 -0.0
H 5.4293341636657715 -1.7511714696884155 -0.0
H 7.897392272949219 6.009385585784912 0.0
