22
Generated by QM7 dataset
C 5.519681930541992 -1.7003755569458008 -2.0828561782836914
C 4.720346927642822 0.08724865317344666 0.029215166345238686
C 5.780918121337891 2.82181453704834 -0.13929171860218048
C 4.853704929351807 4.115634441375732 -2.5814414024353027
C 4.723994255065918 4.33803653717041 2.1200270652770996
C 8.713489532470703 2.8981595039367676 -0.12708407640457153
N 9.860987663269043 1.6886403560638428 2.072935104370117
H 4.692851543426514 -3.5707321166992188 -1.7633033990859985
H 7.570394039154053 -1.9347015619277954 -2.156064033508301
H 4.861528396606445 -1.0429021120071411 -3.92777681350708
H 5.269557952880859 -0.7647154927253723 1.8386468887329102
H 2.6460700035095215 0.16312116384506226 0.04833919554948807
H 5.643081188201904 3.2201123237609863 -4.271669387817383
H 5.4172210693359375 6.1086530685424805 -2.625887870788574
H 2.7895758152008057 4.045147895812988 -2.729841709136963
H 5.18495512008667 3.4447438716888428 3.929250955581665
H 2.659940719604492 4.483715534210205 2.016432285308838
H 5.48553466796875 6.26361083984375 2.1507163047790527
H 9.360664367675781 4.8673295974731445 -0.19766534864902496
H 9.457493782043457 1.984703779220581 -1.8310123682022095
H 9.365520477294922 2.638681411743164 3.6723804473876953
H 11.777434349060059 1.826665997505188 1.9459832906723022
