17
Generated by QM7 dataset
C 1.8077876567840576 0.23916374146938324 0.24589116871356964
C 4.670892715454102 0.166976198554039 0.24014639854431152
C 6.031930446624756 2.236793279647827 1.7776843309402466
C 7.827434539794922 0.08819352090358734 2.5442895889282227
N 5.698922634124756 -1.712734341621399 2.0961976051330566
N 6.376389503479004 -3.970484733581543 1.1019937992095947
C 5.510063648223877 -5.830995559692383 2.418849468231201
H 1.0266504287719727 -1.478710651397705 -0.6054115891456604
H 1.1252185106277466 1.8517237901687622 -0.8576710820198059
H 1.037384033203125 0.4125650227069855 2.1604483127593994
H 5.436534404754639 -0.04291567951440811 -1.680212140083313
H 4.939743995666504 3.023958683013916 3.3529598712921143
H 6.872631549835205 3.778242826461792 0.6913185119628906
H 9.448668479919434 -0.1517639011144638 1.272617220878601
H 8.506640434265137 0.1526331752538681 4.495129585266113
H 5.916486740112305 -7.784575462341309 1.827667474746704
H 4.359144687652588 -5.593929290771484 4.144604206085205
