17
Generated by QM7 dataset
C 1.8127198219299316 0.04106374830007553 0.8429690599441528
C 4.496527671813965 0.6687551736831665 -0.011130486615002155
O 4.531355381011963 0.41796961426734924 -2.7099428176879883
C 6.758889198303223 -0.011376150883734226 -3.9332382678985596
C 9.10415267944336 -0.1536158323287964 -3.0048346519470215
C 5.131570339202881 3.3493127822875977 0.714940071105957
C 6.56403923034668 4.001249313354492 2.6986234188079834
H 1.6241440773010254 0.16170386970043182 2.899860382080078
H 1.3024559020996094 -1.8755720853805542 0.2503509223461151
H 0.42809855937957764 1.3158352375030518 -0.022960172966122627
H 5.7759480476379395 -0.7037718296051025 0.8704456686973572
H 6.384326457977295 -0.232757568359375 -5.938483238220215
H 9.541378021240234 0.08919507265090942 -1.019620656967163
H 10.681336402893066 -0.5074103474617004 -4.268324375152588
H 4.355686664581299 4.825793743133545 -0.48798397183418274
H 7.36724853515625 2.5971829891204834 3.959580898284912
H 6.945518493652344 5.976050853729248 3.1088452339172363
