16
Generated by QM7 dataset
C 1.5056393146514893 2.6237523555755615 -1.188165307044983
C -0.6101169586181641 1.8023451566696167 0.5226037502288818
C -2.63454270362854 0.015401268377900124 -0.3533787727355957
C -1.4982882738113403 -2.6048552989959717 0.1391216367483139
C 1.3397213220596313 -2.262833595275879 -0.3290769159793854
C 1.8505898714065552 0.39172133803367615 0.5375136733055115
H 1.3299514055252075 2.295771598815918 -3.201914072036743
H 2.495950222015381 4.3567070960998535 -0.7162628769874573
H -1.1080975532531738 2.921478748321533 2.156498670578003
H -4.401739120483398 0.2732921838760376 0.6856115460395813
H -3.015247106552124 0.2784133553504944 -2.3716630935668945
H -1.806049108505249 -3.1187472343444824 2.125526189804077
H -2.337345600128174 -4.079597473144531 -1.041579246520996
H 2.4458537101745605 -3.65140438079834 0.7275067567825317
H 1.7779299020767212 -2.4689650535583496 -2.341975450515747
H 3.053173780441284 0.5367578268051147 2.1817076206207275
