18
Generated by QM7 dataset
C 1.840101957321167 -0.19044660031795502 0.3231431543827057
C 4.717776775360107 -0.05457529053092003 0.012831240892410278
C 5.451236248016357 -1.4591519832611084 -2.4205124378204346
C 5.720938205718994 2.707637310028076 0.0
C 4.817384243011475 4.233288764953613 2.2910661697387695
C 8.448304176330566 2.7599260807037354 -0.06963640451431274
N 10.622282981872559 2.8015944957733154 -0.12515656650066376
H 1.2490711212158203 0.4892311990261078 2.184202194213867
H 1.1737277507781982 -2.14359188079834 0.1586047112941742
H 0.8777778148651123 0.9364537596702576 -1.1202863454818726
H 5.571063995361328 -1.0770683288574219 1.606210470199585
H 4.690923690795898 -0.5052749514579773 -4.091559410095215
H 4.714450836181641 -3.394401788711548 -2.400197744369507
H 7.504858493804932 -1.5936249494552612 -2.6332955360412598
H 4.9959259033203125 3.657451629638672 -1.6965394020080566
H 5.306955814361572 3.2880289554595947 4.068428993225098
H 2.7691102027893066 4.5190911293029785 2.2509660720825195
H 5.688510417938232 6.1139445304870605 2.3244009017944336
