10
Generated by QM7 dataset
C 1.8607944250106812 -0.06083028391003609 -0.10172395408153534
C 4.7128448486328125 0.04559909179806709 0.14017988741397858
C 5.611976623535156 2.74314546585083 0.07067576050758362
O 7.023563861846924 3.6577351093292236 1.6675888299942017
H 1.2036232948303223 -2.0204951763153076 -0.048206914216279984
H 1.2325928211212158 0.7851434350013733 -1.882488489151001
H 0.9487181305885315 0.9741349220275879 1.4403681755065918
H 5.607630252838135 -0.969920814037323 -1.423776388168335
H 5.316933631896973 -0.8227678537368774 1.9176563024520874
H 5.014615058898926 3.8598411083221436 -1.5862171649932861
