18
Generated by QM7 dataset
C 1.735108733177185 0.12092357873916626 -0.04501327499747276
C 4.571757793426514 -0.3120126724243164 0.1214338019490242
C 6.034878253936768 2.1628482341766357 -0.19012534618377686
C 8.86209774017334 1.7995673418045044 0.012075349688529968
C 10.153857231140137 0.5513275861740112 -2.1877360343933105
C 10.166915893554688 2.612470865249634 2.0320980548858643
H 0.7223289012908936 -1.6664738655090332 0.19968736171722412
H 1.2126750946044922 0.9065394401550293 -1.8873450756072998
H 1.093924641609192 1.4278392791748047 1.4247022867202759
H 5.123690128326416 -1.6681557893753052 -1.3421401977539062
H 5.019169330596924 -1.1727640628814697 1.9515012502670288
H 5.388327121734619 3.5160434246063232 1.2452539205551147
H 5.594666481018066 3.0253758430480957 -2.0242557525634766
H 9.479621887207031 -1.3878148794174194 -2.428713798522949
H 12.206628799438477 0.47101423144340515 -1.9363645315170288
H 9.778633117675781 1.6019586324691772 -3.9298176765441895
H 9.237359046936035 3.5350351333618164 3.612060308456421
H 12.200469017028809 2.3739306926727295 2.1649837493896484
