19
Generated by QM7 dataset
C 1.8106977939605713 -0.21875469386577606 0.005518000107258558
C 4.677998065948486 0.06141610071063042 0.014286329969763756
C 5.672995567321777 2.8083598613739014 -0.020541323348879814
C 4.850359916687012 4.218114376068115 -2.416884183883667
C 4.832993507385254 4.286598205566406 2.3300700187683105
N 8.451346397399902 2.6815590858459473 -0.03087812475860119
H 1.3041188716888428 -2.223508358001709 0.03346705064177513
H 0.9691271781921387 0.6106839179992676 -1.6892261505126953
H 0.954859733581543 0.6608561277389526 1.6683825254440308
H 5.424515724182129 -0.968125581741333 -1.6286604404449463
H 5.408509731292725 -0.9228288531303406 1.6911348104476929
H 5.387495994567871 3.1792752742767334 -4.126765251159668
H 5.721051216125488 6.096388816833496 -2.5249385833740234
H 2.8005740642547607 4.501988887786865 -2.4663381576538086
H 5.354406833648682 3.295361042022705 4.072719097137451
H 2.7833588123321533 4.57493257522583 2.354390859603882
H 5.7071051597595215 6.165136814117432 2.3917696475982666
H 9.072310447692871 1.8288769721984863 1.5814173221588135
H 9.190248489379883 4.459413528442383 -0.012585575692355633
