15
Generated by QM7 dataset
C 3.3461759090423584 -0.45236265659332275 0.15915273129940033
C 1.6902087926864624 -2.5816872119903564 1.2470680475234985
C -0.33164694905281067 -2.0124261379241943 -0.7731058597564697
C -2.7633275985717773 -1.033056616783142 0.15535438060760498
C -2.6156833171844482 1.486212968826294 0.2620294392108917
O -0.36454707384109497 2.6233367919921875 -0.46606314182281494
C 1.0865358114242554 0.4758519232273102 -1.4115875959396362
H 4.925797939300537 -1.1315301656723022 -0.9939959645271301
H 4.0690717697143555 0.8882279992103577 1.556113839149475
H 2.5284347534179688 -4.468635559082031 1.1300184726715088
H 1.1012001037597656 -2.250399351119995 3.2056937217712402
H -0.45999714732170105 -3.3655266761779785 -2.3296544551849365
H -4.382577419281006 -2.161128520965576 0.6676780581474304
H -4.043881416320801 2.8034465312957764 0.8794029355049133
H 1.5169209241867065 0.7318342328071594 -3.4218595027923584
