14
Generated by QM7 dataset
C 3.6570546627044678 -1.726397156715393 -0.9037426114082336
N 6.042739391326904 -0.48611316084861755 -0.47953689098358154
C 6.298381805419922 2.0836310386657715 -0.8631513118743896
O 4.612632751464844 3.400940179824829 -1.7662136554718018
C 8.890273094177246 3.1407816410064697 -0.22204281389713287
C 9.607008934020996 2.7088847160339355 2.4313595294952393
C 10.212817192077637 2.37455415725708 4.594188690185547
H 3.9616973400115967 -3.7678494453430176 -0.8823320269584656
H 2.8727049827575684 -1.1487644910812378 -2.7260055541992188
H 2.35098934173584 -1.1939289569854736 0.6057894825935364
H 7.348407745361328 -1.3704482316970825 0.6046745777130127
H 8.874361991882324 5.17293643951416 -0.6201702952384949
H 10.271039009094238 2.273775100708008 -1.4985905885696411
H 10.752995491027832 2.1010730266571045 6.515284538269043
