13
Generated by QM7 dataset
C 4.1175432205200195 5.937500476837158 -1.6101789474487305
C 6.087242603302002 4.385865211486816 -1.34395432472229
O 8.431731224060059 5.264210224151611 -0.6803014278411865
C 10.399862289428711 3.590574026107788 -0.44225260615348816
C 12.7168550491333 4.370294094085693 0.18167826533317566
C 14.78927993774414 2.5298707485198975 0.41863101720809937
O 16.933269500732422 3.193183660507202 0.981920599937439
H 2.271980047225952 5.220273971557617 -2.137582540512085
H 4.317476272583008 7.955463409423828 -1.3056117296218872
H 5.935100555419922 2.3701889514923096 -1.6377689838409424
H 9.918927192687988 1.6366918087005615 -0.7975022196769714
H 13.165060997009277 6.335873603820801 0.5300492644309998
H 14.30598258972168 0.5343578457832336 0.06200191378593445
