13
Generated by QM7 dataset
C 1.8451664447784424 -0.00247554131783545 -0.015212295576930046
C 4.6413750648498535 0.09822796285152435 -0.0012850137427449226
C 6.200456142425537 2.0990889072418213 0.009562014602124691
N 8.646781921386719 1.2426083087921143 0.020862575620412827
C 8.65222454071045 -1.4042555093765259 0.017404377460479736
O 10.469460487365723 -2.8110053539276123 0.02505776844918728
N 6.0886406898498535 -2.0610108375549316 0.0032314315903931856
H 1.024552822113037 1.896907091140747 -0.008730534464120865
H 1.1455708742141724 -1.0041438341140747 1.6540772914886475
H 1.1617847681045532 -0.9860212802886963 -1.7018873691558838
H 5.752345085144043 4.088498115539551 0.010147829540073872
H 10.237024307250977 2.292029857635498 0.03053797408938408
H 5.469906806945801 -3.86269474029541 -0.0020220070146024227
