13
Generated by QM7 dataset
N 2.360551357269287 0.28644469380378723 0.5647257566452026
C 4.516124248504639 -0.12107475101947784 -0.4729417562484741
O 4.927517414093018 -2.358283758163452 -1.691210389137268
C 7.538646697998047 -2.4987471103668213 -2.363102436065674
C 8.587028503417969 0.02817581593990326 -1.7363560199737549
C 7.523056507110596 2.36081600189209 -2.925617218017578
N 6.581802845001221 1.4706982374191284 -0.473848819732666
H 2.4609336853027344 2.0333642959594727 1.3901959657669067
H 8.433205604553223 -4.004046440124512 -1.2633763551712036
H 7.703714370727539 -2.9257307052612305 -4.378986835479736
H 10.369929313659668 0.04858485981822014 -0.7505803108215332
H 8.577220916748047 4.104239463806152 -2.782961845397949
H 6.171637535095215 2.2237918376922607 -4.45368766784668
