14
Generated by QM7 dataset
O 7.25129508972168 -2.0125582218170166 -0.12300227582454681
C 4.991730690002441 -0.5754783153533936 -0.08169285953044891
C 5.546686172485352 2.1971468925476074 0.01678076758980751
C 7.8524169921875 3.240483522415161 0.06634828448295593
N 8.192605018615723 5.801534652709961 0.1551843136548996
C 10.48866081237793 6.9859395027160645 0.20934386551380157
O 10.725102424621582 9.287323951721191 0.2881454527378082
H 6.753389835357666 -3.77905535697937 -0.19192059338092804
H 3.8878469467163086 -1.1254642009735107 1.5788472890853882
H 3.901188373565674 -1.008244514465332 -1.785186529159546
H 3.886183977127075 3.4063825607299805 0.04792345315217972
H 9.54672622680664 2.0738987922668457 0.037227604538202286
H 6.679085731506348 6.9742231369018555 0.18500418961048126
H 12.119096755981445 5.689115047454834 0.17606578767299652
