19
Generated by QM7 dataset
C 1.7658734321594238 2.0503528118133545 -2.2831671237945557
N 4.514801502227783 1.9185633659362793 -2.233391761779785
C 5.507814884185791 3.014831304550171 0.09652721136808395
C 8.329894065856934 2.8062243461608887 0.07564573734998703
C 9.910876274108887 4.783199310302734 0.263219952583313
C 12.724527359008789 4.577805042266846 0.24218730628490448
N 13.726630210876465 6.092136859893799 -1.8214125633239746
H 1.0690181255340576 1.2013177871704102 -4.034905433654785
H 1.098856806755066 4.007523536682129 -2.216289758682251
H 0.9358490705490112 0.9978321194648743 -0.708118200302124
H 5.216891288757324 2.9223670959472656 -3.721116304397583
H 4.792269706726074 1.9761433601379395 1.7399275302886963
H 4.913684844970703 4.9914469718933105 0.28274083137512207
H 9.086936950683594 0.9031568169593811 -0.09896495938301086
H 9.15003490447998 6.684263706207275 0.4520980715751648
H 13.348382949829102 2.614379405975342 0.033523742109537125
H 13.470610618591309 5.285526275634766 2.0370492935180664
H 13.107914924621582 5.342501640319824 -3.4854297637939453
H 15.643115043640137 5.918452262878418 -1.846923828125
