15
Generated by QM7 dataset
N 6.39080810546875 -2.133028268814087 -4.3601460456848145
C 6.597071647644043 -1.1875795125961304 -2.3853256702423096
C 6.786139011383057 -0.008541561663150787 0.1391405314207077
N 8.37161922454834 2.2765719890594482 0.1408601850271225
C 6.992648124694824 4.466330051422119 -0.963382363319397
C 8.104695320129395 6.078606605529785 1.1907353401184082
C 8.251507759094238 3.55729603767395 2.6385867595672607
H 7.637932777404785 -1.3898179531097412 1.4294832944869995
H 4.874359607696533 0.36377227306365967 0.8550821542739868
H 4.921999454498291 4.353909969329834 -0.9258146286010742
H 7.600705146789551 5.001878261566162 -2.864975929260254
H 9.949275970458984 6.916435241699219 0.75749671459198
H 6.863466262817383 7.522054672241211 1.9889178276062012
H 9.933440208435059 3.314692974090576 3.8151869773864746
H 6.568839073181152 3.160907030105591 3.7845356464385986
