14
Generated by QM7 dataset
C 1.9550917148590088 0.033863890916109085 0.3059655725955963
C 4.776320457458496 -0.23171821236610413 0.09902165085077286
C 5.8762922286987305 -2.519760847091675 -0.001719650812447071
C 6.293808460235596 2.1687631607055664 -0.06767109036445618
N 6.1956939697265625 3.5846405029296875 2.287400007247925
H 1.431939959526062 0.9449953436851501 2.087259292602539
H 0.9965092539787292 -1.7995483875274658 0.23895587027072906
H 1.2254307270050049 1.1746915578842163 -1.2584441900253296
H 4.776660919189453 -4.248255729675293 0.1029333844780922
H 7.912226676940918 -2.722358465194702 -0.1559590995311737
H 5.583630561828613 3.3386735916137695 -1.6223487854003906
H 8.276395797729492 1.751757264137268 -0.4990577697753906
H 4.408995628356934 4.240469932556152 2.560692310333252
H 7.313787937164307 5.141566753387451 2.1265087127685547
