10
Generated by QM7 dataset
N 1.889726161956787 0.0 0.0
C 4.064819812774658 0.0 0.0
C 6.79358434677124 0.0 0.0
C 7.84478235244751 2.1018667221069336 -1.5272010564804077
N 9.204099655151367 1.3464487791061401 -3.4132232666015625
N 9.204099655151367 -1.3530628681182861 -3.4105589389801025
C 7.844593524932861 -2.1041533946990967 -1.5228546857833862
H 7.598532199859619 0.001833034330047667 1.8994581699371338
H 7.517462730407715 4.093203544616699 -1.0415414571762085
H 7.517500400543213 -4.0944318771362305 -1.0338503122329712
