18
Generated by QM7 dataset
C 4.656908988952637 6.440280914306641 -0.9860212802886963
C 5.417636871337891 4.057563304901123 -1.3673869371414185
C 6.1249237060546875 2.2588841915130615 0.714751124382019
C 8.865290641784668 1.4397823810577393 0.36483052372932434
C 10.960978507995605 3.3328909873962402 1.133325457572937
C 12.284599304199219 1.001271367073059 2.2494165897369385
N 9.766066551208496 -0.1965315192937851 2.47707200050354
H 4.148024559020996 7.64721155166626 -2.5661725997924805
H 4.517258167266846 7.238822937011719 0.8993773460388184
H 5.504772186279297 3.338522434234619 -3.292753219604492
H 4.872791290283203 0.6121578812599182 0.6062619090080261
H 5.836400032043457 3.1245486736297607 2.5756778717041016
H 9.206122398376465 0.5663698315620422 -1.4911261796951294
H 10.397632598876953 4.735899448394775 2.550091028213501
H 11.947245597839355 4.280947685241699 -0.4132264256477356
H 13.552453994750977 0.030632460489869118 0.9291216731071472
H 13.27005386352539 1.298336386680603 4.040234565734863
H 9.736776351928711 -2.0844435691833496 2.10160231590271
