15
Generated by QM7 dataset
O 1.8563346862792969 -0.035224493592977524 0.04593924060463905
C 4.5822834968566895 0.03068915195763111 -0.017253199592232704
C 5.8872904777526855 1.9720993041992188 -1.8484166860580444
C 5.029902935028076 0.08205191045999527 -3.967139959335327
C 6.019816875457764 -1.7966004610061646 -1.8926740884780884
O 8.703435897827148 -1.2945002317428589 -1.5947965383529663
C 8.726471900939941 1.4257606267929077 -1.5464951992034912
H 1.3731317520141602 1.4076948165893555 1.0765769481658936
H 5.328044891357422 0.020635809749364853 1.9141602516174316
H 5.209993839263916 3.912262201309204 -1.910097360610962
H 6.111166477203369 0.13791221380233765 -5.728421211242676
H 3.012280225753784 0.01821696013212204 -4.4259843826293945
H 5.506227493286133 -3.786519765853882 -1.9893146753311157
H 9.847967147827148 2.1475226879119873 -3.125417947769165
H 9.477788925170898 2.091813564300537 0.26000741124153137
