16
Generated by QM7 dataset
C 1.98300302028656 -0.30486950278282166 -0.03633943200111389
O 4.662578105926514 -0.10733644664287567 -0.013511542230844498
C 5.462650299072266 2.469475269317627 -0.014116254635155201
C 8.34072208404541 2.578890323638916 0.012415500357747078
O 9.137959480285645 5.155361652374268 0.051154885441064835
C 11.816740989685059 5.353065013885498 0.07158282399177551
H 1.4784083366394043 -2.305994987487793 -0.01307690516114235
H 1.2115223407745361 0.5523480772972107 -1.7544595003128052
H 1.1751261949539185 0.6014242172241211 1.6366162300109863
H 4.707118988037109 3.4468414783477783 1.6516962051391602
H 4.737430095672607 3.438035488128662 -1.6966527700424194
H 9.093721389770508 1.6267329454421997 -1.6669652462005615
H 9.06528091430664 1.5860471725463867 1.680023193359375
H 12.32124137878418 7.3560991287231445 0.12789666652679443
H 12.616284370422363 4.518883228302002 -1.6440428495407104
H 12.60073184967041 4.427685260772705 1.7465038299560547
