17
Generated by QM7 dataset
C 2.8977439403533936 -0.8559325337409973 1.6644140481948853
C 4.447073459625244 0.09758545458316803 -0.09586580842733383
C 5.6760382652282715 2.637094020843506 0.039665352553129196
O 8.333843231201172 2.246544122695923 -0.0724710002541542
C 9.67721176147461 4.575405120849609 -0.03643392026424408
C 12.432640075683594 3.9559149742126465 0.007653390988707542
C 14.124247550964355 4.75674295425415 -1.695330023765564
H 2.0907552242279053 -2.7289156913757324 1.4412184953689575
H 2.425255537033081 0.18524985015392303 3.366887331008911
H 4.887171745300293 -1.028332233428955 -1.7577288150787354
H 5.18497371673584 3.6243624687194824 1.7929344177246094
H 5.0629730224609375 3.781172037124634 -1.573839545249939
H 9.192610740661621 5.643969535827637 1.6698753833770752
H 9.175678253173828 5.698261260986328 -1.7030211687088013
H 13.059311866760254 2.7502129077911377 1.5499345064163208
H 13.586602210998535 5.944152355194092 -3.279449701309204
H 16.096572875976562 4.211462497711182 -1.5442086458206177
