13
Generated by QM7 dataset
C 1.889726161956787 0.0 0.0
C 4.138802528381348 0.0 0.0
C 6.86756706237793 0.0 0.0
C 7.944767951965332 -2.2531392574310303 -1.4286518096923828
C 8.522797584533691 -1.019015908241272 -3.899695634841919
N 8.453009605407715 1.4212251901626587 -3.904249668121338
N 7.879458904266357 2.0992400646209717 -1.49626624584198
H -0.12445736676454544 0.010091137140989304 -0.009675397537648678
H 7.592957496643066 0.06600813567638397 1.9361189603805542
H 6.633070945739746 -3.826317548751831 -1.6978622674942017
H 9.722206115722656 -2.940016984939575 -0.6246867775917053
H 9.020040512084961 -2.157254695892334 -5.5633158683776855
H 6.775726318359375 3.678616523742676 -1.4100569486618042
