19
Generated by QM7 dataset
C 1.7096163034439087 -0.033353667706251144 0.36910131573677063
C 4.536798000335693 0.011092692613601685 -0.047942351549863815
N 5.191512107849121 0.0843573734164238 -2.745375156402588
C 6.113471984863281 2.032305955886841 1.361944556236267
C 7.836637496948242 -0.05194856971502304 2.4337594509124756
N 10.267203330993652 -0.009221863932907581 1.1142770051956177
C 6.119953632354736 -2.0822324752807617 1.2458208799362183
H 1.2507718801498413 -0.09677287191152573 2.3852689266204834
H 0.8483169674873352 -1.6915884017944336 -0.519636869430542
H 0.8102200627326965 1.6547008752822876 -0.42040738463401794
H 7.054404258728027 0.37645235657691956 -3.117424488067627
H 4.266604900360107 1.4697155952453613 -3.7139732837677
H 5.045058727264404 3.005080223083496 2.853618860244751
H 7.011469841003418 3.5052907466888428 0.21106351912021637
H 7.987475395202637 -0.09405166655778885 4.493428707122803
H 10.15285587310791 -0.19723071157932281 -0.7966518402099609
H 11.454385757446289 -1.417710304260254 1.6812326908111572
H 7.021409511566162 -3.4824252128601074 0.012566679157316685
H 5.061726093292236 -3.138570547103882 2.6836190223693848
