13
Generated by QM7 dataset
N 2.017320394515991 -0.0030235617887228727 -0.4409486949443817
N 4.566409587860107 -0.02598373405635357 -0.17047218978405
C 5.593438148498535 2.1815943717956543 -0.14913718402385712
C 8.296672821044922 2.07975697517395 0.0
C 10.545748710632324 2.07975697517395 0.0
C 13.202703475952148 2.07975697517395 0.0
C 14.533751487731934 4.227374076843262 0.0005669178208336234
H 1.2873003482818604 -1.706517219543457 0.09752876311540604
H 1.1226674318313599 1.3612074851989746 0.5876670479774475
H 4.620588302612305 4.018218994140625 -0.2604798376560211
H 14.171698570251465 0.2700229585170746 -0.002135390415787697
H 13.624887466430664 6.066549777984619 0.0006803013966418803
H 16.58391571044922 4.18292760848999 -0.000907068548258394
