17
Generated by QM7 dataset
C 1.5464006662368774 -0.34704819321632385 -0.19271427392959595
C 4.42137336730957 -0.1441671997308731 -0.006859705783426762
C 5.68325662612915 -1.5839117765426636 -2.1692922115325928
C 5.220670700073242 2.5914759635925293 -0.04578806459903717
C 6.464186191558838 3.7220234870910645 1.8501930236816406
C 7.171340465545654 6.307943820953369 1.7122052907943726
C 7.771914482116699 8.491087913513184 1.603149175643921
H 0.630355954170227 0.6477225422859192 1.3753615617752075
H 0.9470929503440857 -2.3269519805908203 -0.11799450218677521
H 0.8377723097801208 0.4644757807254791 -1.9615356922149658
H 5.010400772094727 -1.0241559743881226 1.7765693664550781
H 5.1356520652771 -0.8205568790435791 -4.015063285827637
H 5.149295806884766 -3.58335542678833 -2.1257529258728027
H 7.746214389801025 -1.479768991470337 -2.0245959758758545
H 4.740189075469971 3.674099922180176 -1.7294774055480957
H 6.965662956237793 2.6858489513397217 3.548830032348633
H 8.304118156433105 10.430116653442383 1.5037684440612793
