16
Generated by QM7 dataset
C 2.239363193511963 -0.30466166138648987 0.004932185169309378
N 4.996397972106934 -0.22217510640621185 -0.07471977174282074
C 6.04328727722168 -1.0457555055618286 -2.4889016151428223
C 5.986557960510254 1.7265105247497559 -1.777835488319397
C 8.362548828125 3.0817275047302246 -1.0478720664978027
C 9.424555778503418 3.964815616607666 -3.454589366912842
C 10.31015682220459 4.6954026222229 -5.413876533508301
H 1.5465896129608154 1.0507255792617798 1.4064286947250366
H 1.620421290397644 -2.188642978668213 0.595150351524353
H 1.3188965320587158 0.1264415830373764 -1.8017027378082275
H 4.767684459686279 -1.7022464275360107 -3.949017286300659
H 7.826622009277344 -2.047083616256714 -2.390333414077759
H 4.62565279006958 2.954700231552124 -2.6970927715301514
H 9.698736190795898 1.8445427417755127 -0.06468532234430313
H 7.9200310707092285 4.677110195159912 0.19184499979019165
H 11.099627494812012 5.343616485595703 -7.149949073791504
