13
Generated by QM7 dataset
O 1.6986181735992432 -0.306759238243103 0.24220620095729828
C 4.012172222137451 -0.1441861093044281 0.11829685419797897
C 5.334092140197754 2.3406336307525635 -0.2098918855190277
C 8.191811561584473 2.2528369426727295 0.009127377532422543
N 9.368978500366211 -0.23128357529640198 -0.21482406556606293
C 8.026082992553711 -2.216648817062378 -0.09788781404495239
N 5.470284938812256 -2.2528560161590576 0.14067120850086212
H 4.584192276000977 3.6520469188690186 1.1998249292373657
H 4.8056111335754395 3.07851505279541 -2.0727460384368896
H 8.76923656463623 3.08647084236145 1.819881796836853
H 8.996097564697266 3.476264715194702 -1.4491742849349976
H 8.878576278686523 -4.115823745727539 -0.17410047352313995
H 4.533037185668945 -3.911525249481201 0.24815884232521057
