15
Generated by QM7 dataset
N 3.719925880432129 -1.031903862953186 -2.2433884143829346
C 5.150032997131348 -0.36815643310546875 0.0077667743898928165
C 5.731236934661865 2.3925445079803467 -0.04461643472313881
C 8.074951171875 3.363447904586792 -0.009467528201639652
C 8.654643058776855 6.1230149269104 -0.06544121354818344
O 10.04000186920166 6.729654788970947 2.146634340286255
H 3.3247275352478027 -2.916036367416382 -2.199641227722168
H 4.8411760330200195 -0.7656036615371704 -3.788050413131714
H 6.87066650390625 -1.5135949850082397 0.1062026098370552
H 4.0191450119018555 -0.7907937169075012 1.687242031097412
H 4.103313446044922 3.6505351066589355 -0.1029333844780922
H 9.704669952392578 2.1109941005706787 0.04185743257403374
H 6.951641082763672 7.295816898345947 -0.12440066784620285
H 9.816919326782227 6.576851844787598 -1.7127721309661865
H 9.00660514831543 6.204254150390625 3.572678327560425
