12
Generated by QM7 dataset
C 1.7989248037338257 0.18264202773571014 -0.011451740749180317
C 4.634118556976318 0.004629828967154026 -0.003987322095781565
C 5.8970417976379395 -2.203401803970337 0.004610931966453791
C 4.6757493019104 -4.598024845123291 0.0047432123683393
C 3.6543712615966797 -6.622337341308594 0.0017763425130397081
C 6.051318645477295 2.302196741104126 -0.004289678297936916
N 7.206168174743652 4.164408206939697 -0.004195191897451878
H 1.1637500524520874 2.1533617973327637 0.020957062020897865
H 0.9970006346702576 -0.7467252612113953 1.655003309249878
H 1.0122506618499756 -0.6891453266143799 -1.7157957553863525
H 7.954159736633301 -2.224717855453491 0.010809233412146568
H 2.7472083568573 -8.420525550842285 -0.00011338356853229925
