13
Generated by QM7 dataset
C 2.478149175643921 0.2462124228477478 0.009732089936733246
C 5.2593913078308105 0.12521325051784515 -0.0008881712565198541
N 6.920422554016113 1.9686789512634277 -0.011678507551550865
C 9.163924217224121 0.6710228323936462 -0.016913048923015594
C 11.630244255065918 1.9664868116378784 -0.029989954084157944
N 8.94201374053955 -1.8498529195785522 -0.00999665167182684
O 6.328655242919922 -2.2218832969665527 0.001058246591128409
H 1.6363894939422607 -1.6423609256744385 -0.008125822059810162
H 1.8006821870803833 1.270500659942627 -1.6532268524169922
H 1.8121150732040405 1.234217882156372 1.6990528106689453
H 13.199736595153809 0.6193199753761292 -0.01627054251730442
H 11.810807228088379 3.1805224418640137 1.6341785192489624
H 11.810543060302734 3.146620750427246 -1.7183846235275269
