9
Generated by QM7 dataset
N 1.9073761701583862 -0.010336802341043949 -0.0
C 4.472301483154297 -0.1442616879940033 -0.0
O 5.629550933837891 -2.140568494796753 -0.0
C 5.8036322593688965 2.223036050796509 -0.0
C 6.939981460571289 4.187085151672363 -0.0
C 8.39081859588623 6.691406726837158 -0.0
N 9.465581893920898 8.602203369140625 -0.0
H 0.9556345343589783 1.6428145170211792 0.0
H 0.9290460348129272 -1.6506757736206055 -0.0
