18
Generated by QM7 dataset
C 1.7436691522598267 -0.13783662021160126 0.16051334142684937
C 4.6224212646484375 -0.1661825180053711 -0.07311350107192993
N 5.368107318878174 -1.8563724756240845 -2.1309306621551514
C 5.639301776885986 2.5169074535369873 -0.514610230922699
C 8.529524803161621 2.626209020614624 -0.5890087485313416
C 9.41735553741455 5.249432563781738 -0.8498098254203796
C 10.149983406066895 7.388205528259277 -1.0684889554977417
H 1.1510132551193237 1.065597653388977 1.7368850708007812
H 1.007620930671692 -2.0402238368988037 0.5159897208213806
H 0.8475421667098999 0.5832073092460632 -1.5616129636764526
H 5.4168243408203125 -0.9052544236183167 1.6918339729309082
H 4.603146076202393 -1.2418713569641113 -3.7906017303466797
H 4.627466678619385 -3.610265016555786 -1.8296328783035278
H 4.95352029800415 3.752466917037964 1.006373643875122
H 4.866838455200195 3.2924697399139404 -2.2789907455444336
H 9.256105422973633 1.506848692893982 -2.1722023487091064
H 9.308469772338867 1.8082600831985474 1.1475929021835327
H 10.802978515625 9.281465530395508 -1.2668534517288208
