17
Generated by QM7 dataset
C 1.8727941513061523 0.0665939524769783 -0.15641263127326965
C 4.737883567810059 -0.015873700380325317 0.10726085305213928
C 5.645197868347168 -2.496063709259033 1.3548392057418823
N 6.716691493988037 -1.5882203578948975 3.7003860473632812
C 6.64737606048584 -3.1357359886169434 5.940316200256348
C 6.515095233917236 0.9679555296897888 3.740694046020508
N 5.524897575378418 2.1055705547332764 1.8011925220489502
H 1.2015445232391357 -1.4564685821533203 -1.3839219808578491
H 1.2646424770355225 1.8716981410980225 -0.9649130702018738
H 0.946526050567627 -0.1306178718805313 1.6857868432998657
H 5.622879981994629 0.22820332646369934 -1.749829649925232
H 7.123455047607422 -3.3875420093536377 0.20977850258350372
H 4.113518238067627 -3.8571388721466064 1.6405845880508423
H 6.691388130187988 -5.147254943847656 5.458341598510742
H 4.927309513092041 -2.7697715759277344 7.031292915344238
H 8.283841133117676 -2.7368903160095215 7.140273571014404
H 7.2080769538879395 1.946625828742981 5.4413909912109375
