19
Generated by QM7 dataset
C 5.242421627044678 -1.248012900352478 -1.6293975114822388
C 4.9963603019714355 0.14985528588294983 0.8726566433906555
C 6.547447681427002 2.6075196266174316 1.0037469863891602
C 5.897495269775391 4.0323166847229 3.4547972679138184
O 7.009844779968262 6.478151321411133 3.4882075786590576
C 9.400745391845703 2.100184917449951 0.8189316987991333
O 10.790336608886719 4.405650615692139 0.9333168268203735
H 3.965136766433716 -2.8750672340393066 -1.656363844871521
H 7.159586429595947 -1.9618759155273438 -1.9214924573898315
H 4.747010707855225 -0.019917713478207588 -3.217655658721924
H 5.548651695251465 -1.118358850479126 2.4155423641204834
H 2.9922869205474854 0.5962653160095215 1.1581753492355347
H 6.024786949157715 3.841850996017456 -0.5824325084686279
H 6.544896602630615 2.994478940963745 5.124332427978516
H 3.851715326309204 4.292550563812256 3.6228129863739014
H 8.824775695800781 6.225249290466309 3.2118542194366455
H 9.902316093444824 1.1607643365859985 -0.9523463845252991
H 10.036940574645996 0.9016072154045105 2.380506992340088
H 10.438657760620117 5.321771144866943 -0.6276914477348328
