14
Generated by QM7 dataset
C 2.740934371948242 -0.7017309069633484 -0.22054994106292725
N 5.459721088409424 -0.24677933752536774 -0.2524107098579407
C 6.013316631317139 2.458873748779297 0.01071474701166153
C 8.866897583007812 2.913806438446045 0.1348886489868164
C 9.406621932983398 5.622143268585205 0.3797026574611664
N 9.825461387634277 7.768645286560059 0.5593778491020203
H 2.3811116218566895 -2.729142427444458 -0.41286736726760864
H 1.7927643060684204 0.2657710909843445 -1.784298300743103
H 1.900837779045105 -0.08762659877538681 1.5674899816513062
H 6.178686141967773 -0.9061425924301147 -1.9166169166564941
H 5.133214473724365 3.1899900436401367 1.7408913373947144
H 5.203322887420654 3.503136396408081 -1.5879368782043457
H 9.779294967651367 2.1804416179656982 -1.5750300884246826
H 9.678799629211426 1.8951117992401123 1.7463337182998657
