15
Generated by QM7 dataset
C 4.622572422027588 -1.7772307395935059 -1.6089506149291992
O 3.8598790168762207 0.6183939576148987 -0.6639552712440491
C 5.973650932312012 2.2411773204803467 -0.08479201048612595
C 6.658468723297119 4.129845142364502 -2.0878827571868896
C 5.327062606811523 4.995906829833984 0.27215835452079773
C 6.721113204956055 6.444287300109863 2.0885064601898193
C 7.882897853851318 7.662537097930908 3.611380100250244
H 2.9299259185791016 -2.876711130142212 -2.048330783843994
H 5.723753929138184 -2.790388584136963 -0.182207390666008
H 5.7358856201171875 -1.5481014251708984 -3.336122512817383
H 7.483788013458252 1.477161169052124 1.0776541233062744
H 5.584386348724365 4.120680332183838 -3.8311362266540527
H 8.639941215515137 4.585571765899658 -2.329011917114258
H 3.34645938873291 5.499291896820068 0.08074799925088882
H 8.908452033996582 8.744140625 4.962704181671143
