13
Generated by QM7 dataset
O 7.747461318969727 4.361128807067871 -5.92748498916626
C 5.804747581481934 4.7317986488342285 -4.728189468383789
N 5.556399345397949 4.528142929077148 -2.1380927562713623
N 7.60493803024292 3.6479461193084717 -0.6673378944396973
C 9.239872932434082 5.747337341308594 0.12262433022260666
C 11.284594535827637 4.791816234588623 1.7397007942199707
C 12.959874153137207 4.025759220123291 3.0620176792144775
H 4.008732795715332 5.280839443206787 -5.629286289215088
H 3.8254482746124268 4.672574520111084 -1.316080927848816
H 8.684369087219238 2.4931912422180176 -1.7965059280395508
H 8.131302833557129 7.145111083984375 1.174804925918579
H 10.047295570373535 6.697964191436768 -1.5318686962127686
H 14.445557594299316 3.3435301780700684 4.238315582275391
