14
Generated by QM7 dataset
N 1.45709228515625 1.2265456914901733 -1.3008874654769897
C 2.5488626956939697 -1.2055130004882812 -0.5715476870536804
C 4.349790573120117 -2.4890339374542236 -2.343411684036255
C 5.32197904586792 -1.3517589569091797 0.07050567865371704
O 6.028660774230957 -3.136019468307495 2.004356861114502
C 5.85801887512207 -2.317786931991577 4.430576324462891
O 5.105756759643555 -0.25925153493881226 5.14579963684082
H 1.1848771572113037 2.3228135108947754 0.2649018168449402
H -0.28466835618019104 0.9873251914978027 -2.0886197090148926
H 1.2936497926712036 -2.415693521499634 0.5169723629951477
H 4.829761981964111 -1.5460983514785767 -4.096151351928711
H 4.262598514556885 -4.528861045837402 -2.4852166175842285
H 6.434139728546143 0.36645570397377014 -0.0894218385219574
H 6.506515979766846 -3.835822820663452 5.697713375091553
