16
Generated by QM7 dataset
C 2.1756417751312256 0.10295227915048599 1.604131817817688
C 4.65140962600708 1.0261402130126953 0.48685014247894287
C 4.568091869354248 1.1742569208145142 -2.3712661266326904
O 2.699265956878662 0.6638041138648987 -3.646623373031616
N 6.883497714996338 1.9907886981964111 -3.342679977416992
C 6.954343318939209 3.743490695953369 -5.4111552238464355
C 7.755795001983643 1.0785233974456787 -5.744238376617432
H 2.2842631340026855 0.07063796371221542 3.669224500656128
H 1.734938621520996 -1.810206413269043 0.9493228197097778
H 0.6052603721618652 1.33599853515625 1.0589457750320435
H 6.181520938873291 -0.25343117117881775 1.0412769317626953
H 5.078639030456543 2.9129562377929688 1.2251094579696655
H 8.373055458068848 5.195858478546143 -5.194970607757568
H 5.132439613342285 4.333331108093262 -6.128967761993408
H 6.50362491607666 -0.22066332399845123 -6.708622455596924
H 9.747169494628906 0.6278803944587708 -5.77171516418457
