15
Generated by QM7 dataset
C 1.809034824371338 0.10601363331079483 -0.014569788239896297
N 4.525610446929932 -0.04673292860388756 -0.0016440617619082332
C 6.163833141326904 1.939482569694519 0.005914842709898949
N 8.522494316101074 1.1637310981750488 0.017328789457678795
C 8.400493621826172 -1.4342832565307617 0.017234303057193756
C 10.74008846282959 -2.962939500808716 0.02842148020863533
C 5.9178853034973145 -2.2212975025177 0.005310130305588245
H 1.2245992422103882 2.086956739425659 0.005347924772650003
H 1.0919971466064453 -0.8546286225318909 1.6673243045806885
H 1.1110455989837646 -0.8158703446388245 -1.7258490324020386
H 5.558553695678711 3.892873525619507 0.002645616652444005
H 10.314692497253418 -4.9868927001953125 0.044162899255752563
H 11.87399959564209 -2.528548002243042 1.7023030519485474
H 11.872922897338867 -2.5540783405303955 -1.652584433555603
H 5.068680286407471 -4.078293323516846 0.0013228083262220025
