11
Generated by QM7 dataset
O 1.5594587326049805 0.7042253613471985 0.4737354516983032
C 3.76953125 0.49954909086227417 -0.1779744029045105
C 5.7317094802856445 2.1585774421691895 0.8794785141944885
O 7.725295066833496 2.773059606552124 -0.853173553943634
C 6.051243305206299 4.790833473205566 -0.14566008746623993
C 7.254772186279297 6.677403926849365 1.3719978332519531
C 8.26048469543457 8.262751579284668 2.6444449424743652
H 4.394501209259033 -0.9361136555671692 -1.5528446435928345
H 6.22802734375 1.8102253675460815 2.8330962657928467
H 4.71429967880249 5.447192192077637 -1.5525989532470703
H 9.160013198852539 9.66919994354248 3.77109956741333
