14
Generated by QM7 dataset
C 1.8181811571121216 0.08231647312641144 -0.006916397716850042
C 4.620796203613281 0.0632302388548851 -9.448630589758977e-05
C 6.2078447341918945 2.048311948776245 -0.0021542878821492195
C 8.778231620788574 1.1455141305923462 0.006803013850003481
C 8.781330108642578 -1.3888542652130127 0.014664274640381336
C 6.1124138832092285 -2.3560726642608643 0.011206075549125671
H 1.0736478567123413 2.011991500854492 -0.007010884117335081
H 1.0874050855636597 -0.8838816285133362 1.6690250635147095
H 1.0957387685775757 -0.8811792731285095 -1.6880545616149902
H 5.68902063369751 4.020751476287842 -0.009580911137163639
H 10.417550086975098 2.356696367263794 0.007010884117335081
H 10.440340042114258 -2.5749974250793457 0.022374358028173447
H 5.738153457641602 -3.484881639480591 -1.6795507669448853
H 5.729990005493164 -3.473978042602539 1.7073487043380737
