15
Generated by QM7 dataset
C 2.0303783416748047 -0.30163809657096863 -0.9975864291191101
N 4.444220066070557 0.2395983785390854 0.22705060243606567
C 5.709996700286865 -1.9950594902038574 1.2547593116760254
C 5.843997001647949 2.3568854331970215 -0.47010716795921326
N 4.8692193031311035 4.441801071166992 -1.3063865900039673
C 8.744953155517578 2.435441255569458 -0.2654876112937927
O 10.057557106018066 0.5520645976066589 -0.4796313941478729
H 0.6909027695655823 1.2492601871490479 -0.7261839509010315
H 1.1343648433685303 -1.9933019876480103 -0.21072335541248322
H 2.306751012802124 -0.6066398620605469 -3.0246012210845947
H 4.34786319732666 -3.2689805030822754 2.153796434402466
H 7.066271781921387 -1.4711328744888306 2.7266101837158203
H 6.675004005432129 -3.0438008308410645 -0.24420930445194244
H 2.9480295181274414 4.297747611999512 -1.3231106996536255
H 9.510915756225586 4.346256732940674 0.05028561130166054
