13
Generated by QM7 dataset
C 2.014618158340454 0.6814919114112854 -0.5680139064788818
C 4.474890232086182 0.5572046637535095 0.05117378383874893
C 6.1309709548950195 -1.7476376295089722 0.27625906467437744
C 4.814587593078613 -4.14188289642334 -0.25694605708122253
C 3.7736129760742188 -6.114190101623535 -0.6847989559173584
C 5.764326095581055 2.998655319213867 0.5921267867088318
O 8.002063751220703 3.121185064315796 1.1724616289138794
H 0.9891393780708313 2.455415725708008 -0.6775423884391785
H 0.9279311299324036 -1.0077531337738037 -0.9923896789550781
H 6.91452693939209 -1.8366248607635498 2.1934239864349365
H 7.729527950286865 -1.5655624866485596 -1.0308644771575928
H 2.8560187816619873 -7.867307662963867 -1.06289541721344
H 4.5861005783081055 4.711937427520752 0.44130775332450867
