15
Generated by QM7 dataset
C 1.6955757141113281 -0.8270008563995361 0.7014285326004028
C 4.379232406616211 -0.2806243300437927 -0.10765770077705383
C 5.9600830078125 -2.246279716491699 -0.44805407524108887
N 5.083741188049316 2.2366042137145996 -0.43987154960632324
O 7.532505035400391 2.765481948852539 -1.3060085773468018
C 3.669205665588379 4.401663303375244 -0.14235307276248932
N 4.428195476531982 6.707318305969238 -0.4243758022785187
H 1.290550708770752 0.0716962069272995 2.5211024284362793
H 1.3382095098495483 -2.8538644313812256 0.9255878329277039
H 0.3568936884403229 -0.12128262221813202 -0.709913432598114
H 5.356069564819336 -4.184854984283447 -0.15994642674922943
H 7.919143199920654 -1.9709465503692627 -0.9884968400001526
H 7.335727691650391 2.584540605545044 -3.1286306381225586
H 1.682271957397461 4.061342716217041 0.36993280053138733
H 6.326821804046631 6.606671333312988 -0.8284181356430054
