13
Generated by QM7 dataset
O 5.1276774406433105 -1.277757167816162 -0.9121708273887634
C 4.292569637298584 0.3238612711429596 0.547850489616394
C 5.513975143432617 2.8813788890838623 1.0305243730545044
N 8.183553695678711 2.801821231842041 0.2927185893058777
C 9.387724876403809 5.301437854766846 0.3084222078323364
C 8.450949668884277 7.063928604125977 -1.6464617252349854
N 7.672382354736328 8.440688133239746 -3.166330575942993
H 2.46614933013916 0.026947494596242905 1.5123100280761719
H 5.3494367599487305 3.290069818496704 3.0507171154022217
H 4.423962116241455 4.273672580718994 -0.04149838536977768
H 8.325075149536133 1.9934910535812378 -1.4605315923690796
H 11.419501304626465 5.020321846008301 0.0189728494733572
H 9.189851760864258 6.157238006591797 2.185600519180298
