17
Generated by QM7 dataset
C 2.807169198989868 -0.28542423248291016 -0.8263772130012512
C 5.38254451751709 0.1305800825357437 0.25507524609565735
C 6.854017734527588 -2.1188175678253174 1.2270747423171997
C 7.666449069976807 -0.7465741038322449 -1.1282799243927002
C 9.544855117797852 1.3465054035186768 -1.0315637588500977
O 8.223710060119629 3.537472724914551 -0.12084798514842987
C 5.993720054626465 2.725816488265991 1.209575891494751
H 2.253422737121582 1.2876782417297363 -2.0564565658569336
H 1.4116631746292114 -0.4369235932826996 0.6971577405929565
H 2.7118704319000244 -2.0238778591156006 -1.9515957832336426
H 6.045479774475098 -3.989457607269287 1.011041283607483
H 7.97288703918457 -1.8964534997940063 2.929812431335449
H 7.48320198059082 -1.640490174293518 -2.9526026248931885
H 11.104011535644531 0.9212982058525085 0.2605554461479187
H 10.32011604309082 1.7806888818740845 -2.897214651107788
H 6.4005022048950195 2.7175395488739014 3.239330768585205
H 4.493882179260254 4.100535869598389 0.8439894914627075
