13
Generated by QM7 dataset
O 5.754329681396484 -1.7900997400283813 -1.0799974203109741
C 4.47288703918457 0.19131587445735931 0.19358354806900024
C 6.139606952667236 2.463144540786743 0.20928716659545898
C 6.21665096282959 4.216999530792236 -2.0325706005096436
C 5.028183460235596 5.077391624450684 0.4033620357513428
H 4.618074893951416 -3.2319419384002686 -1.0925829410552979
H 4.074098587036133 -0.41381222009658813 2.1313464641571045
H 2.680708885192871 0.5520457029342651 -0.775505781173706
H 7.902778148651123 2.0960276126861572 1.1858975887298584
H 4.990237712860107 3.8173224925994873 -3.6240410804748535
H 8.032111167907715 5.006715774536133 -2.556119203567505
H 6.038033962249756 6.464620590209961 1.5217586755752563
H 2.9911153316497803 5.28641414642334 0.4493390917778015
