16
Generated by QM7 dataset
C 1.7905911207199097 -0.14641597867012024 0.14135152101516724
C 4.6507673263549805 -0.252826452255249 0.07112929224967957
O 5.596726417541504 2.271583080291748 0.020786987617611885
C 8.295463562011719 2.327972412109375 -0.0582035630941391
C 9.152491569519043 5.072780609130859 -0.09985312819480896
C 11.91455364227295 5.231253147125244 -0.18738524615764618
N 14.104065895080566 5.3333740234375 -0.2573240101337433
H 0.983356773853302 -2.0487465858459473 0.18267983198165894
H 1.0575474500656128 0.8544018864631653 -1.514445424079895
H 1.1401851177215576 0.8914216160774231 1.8092615604400635
H 5.277646064758301 -1.2662488222122192 -1.621706247329712
H 5.362135887145996 -1.2305140495300293 1.7517383098602295
H 8.954882621765137 1.33614981174469 -1.7561224699020386
H 9.054320335388184 1.356955647468567 1.6087994575500488
H 8.42702579498291 6.056553363800049 1.5726300477981567
H 8.323431015014648 6.039507865905762 -1.7331812381744385
