14
Generated by QM7 dataset
N 1.9759920835494995 0.01619495265185833 0.15405046939849854
C 4.7113518714904785 0.05618155747652054 -0.1324698030948639
C 5.845244407653809 2.005963087081909 1.7201987504959106
C 7.8557047843933105 -0.014758761040866375 2.3561861515045166
C 5.886232376098633 -2.017320394515991 1.5502179861068726
H 1.1320593357086182 -1.4829814434051514 -0.7120488286018372
H 1.104374885559082 1.5879746675491333 -0.5385341644287109
H 5.426462173461914 0.14692620933055878 -2.070535182952881
H 4.661652088165283 2.513052225112915 3.3451931476593018
H 6.574149131774902 3.7379539012908936 0.8608647584915161
H 9.526052474975586 0.05355484038591385 1.1326451301574707
H 8.463762283325195 -0.09167061746120453 4.32805871963501
H 6.651325702667236 -3.655656337738037 0.5502504706382751
H 4.7159247398376465 -2.6834299564361572 3.1267218589782715
