14
Generated by QM7 dataset
O 5.212469577789307 -1.404331088066101 2.2411208152770996
C 4.505314826965332 -0.12787777185440063 -0.039835426956415176
C 5.582307815551758 2.5722951889038086 -0.03152063116431236
O 4.905407905578613 3.7762207984924316 2.2857561111450195
C 8.414931297302246 2.6158156394958496 -0.2124808132648468
C 9.724246978759766 3.7303383350372314 -2.0711777210235596
H 4.543978691101074 -3.113210439682007 2.114962577819824
H 2.4380111694335938 -0.056710682809352875 -0.07485204935073853
H 5.18121337890625 -1.2125617265701294 -1.665680170059204
H 4.735067844390869 3.654465675354004 -1.580642580986023
H 5.158082962036133 2.4772419929504395 3.575040578842163
H 9.441052436828613 1.671311616897583 1.2977126836776733
H 8.792082786560059 4.718400478363037 -3.6080541610717773
H 11.775545120239258 3.698401927947998 -2.0689098834991455
