17
Generated by QM7 dataset
N 2.027147054672241 -0.009051788598299026 0.02925296127796173
C 4.805479049682617 -0.006670733448117971 0.10068460553884506
C 5.99878454208374 -1.8426719903945923 -1.887250542640686
C 8.847527503967285 -1.4171056747436523 -1.6202889680862427
C 8.839685440063477 1.4773123264312744 -1.5803779363632202
C 5.9872002601623535 1.8933354616165161 -1.832694172859192
N 5.1534342765808105 0.048773832619190216 -3.8807036876678467
H 1.2032452821731567 1.3807283639907837 1.0631787776947021
H 1.222048044204712 -1.674354076385498 0.538175106048584
H 5.591302871704102 -0.04849037155508995 2.012237071990967
H 5.277135848999023 -3.765373706817627 -2.055020570755005
H 9.601906776428223 -2.2198991775512695 0.13003206253051758
H 9.91004467010498 -2.170180320739746 -3.2273120880126953
H 9.894208908081055 2.2801434993743896 -3.1675400733947754
H 9.59041690826416 2.2364909648895264 0.18989858031272888
H 5.252852916717529 3.814185380935669 -1.9487422704696655
H 6.216121673583984 0.0775354653596878 -5.481831073760986
