10
Generated by QM7 dataset
C 1.889726161956787 0.0 0.0
C 4.138802528381348 0.0 0.0
C 6.86756706237793 0.0 0.0
C 7.812279224395752 -1.3367544412612915 -2.1832950115203857
C 8.590940475463867 -2.438521385192871 -3.9827868938446045
C 7.7784528732299805 2.5722384452819824 0.0
N 8.504504203796387 4.622572422027588 0.0
H -0.12406051903963089 0.0071053700521588326 -0.00910848006606102
H 7.541235446929932 -0.9504188895225525 1.7142651081085205
H 9.284867286682129 -3.4178342819213867 -5.6026411056518555
