19
Generated by QM7 dataset
C 1.3527982234954834 -1.1195871829986572 -0.11858031153678894
C 3.9719018936157227 -0.05786341428756714 -0.15369142591953278
C 4.662899017333984 2.394623279571533 -0.23175601661205292
C 2.839578151702881 4.581697940826416 -0.18360579013824463
C 7.4362993240356445 3.1247000694274902 -0.27045759558677673
C 8.162728309631348 4.462550640106201 -2.6690680980682373
C 9.11632251739502 6.806717872619629 -2.7584710121154785
H 1.237184762954712 -2.708997964859009 -1.4386106729507446
H -0.09257768094539642 0.24094007909297943 -0.6832493543624878
H 0.902268648147583 -1.823642373085022 1.7725820541381836
H 5.448704242706299 -1.4929403066635132 -0.1298997700214386
H 0.9098275303840637 4.020732402801514 0.2860667407512665
H 2.795358419418335 5.528072357177734 -2.022592782974243
H 3.4177207946777344 5.960385322570801 1.24782395362854
H 8.64111328125 1.4462641477584839 -0.09418395161628723
H 7.8443474769592285 4.2972941398620605 1.3903849124908447
H 7.894463062286377 3.423994779586792 -4.422129154205322
H 9.42223072052002 7.911357402801514 -1.058341145515442
H 9.608633995056152 7.671097755432129 -4.553257465362549
