15
Generated by QM7 dataset
C 1.8556921482086182 0.0007180959219112992 -0.02074919268488884
C 4.762109756469727 0.0 0.0
C 5.68777322769165 -1.3544801473617554 2.39951753616333
C 5.6802144050598145 -1.4099624156951904 -2.2418198585510254
C 6.429150581359863 -2.548257827758789 -4.060076713562012
C 5.672995567321777 2.5722384452819824 0.0
C 6.423746109008789 4.692322254180908 0.0
H 1.1092314720153809 0.9421229362487793 -1.7113738059997559
H 1.0862523317337036 0.9935046434402466 1.6280368566513062
H 1.0976284742355347 -1.9284276962280273 -0.005933740176260471
H 5.025273323059082 -0.39686137437820435 4.114047050476074
H 7.75925350189209 -1.412060022354126 2.4868416786193848
H 5.014936447143555 -3.313786029815674 2.4708735942840576
H 7.099380016326904 -3.5471861362457275 -5.6749043464660645
H 7.100910663604736 6.588794708251953 -0.008825020864605904
