16
Generated by QM7 dataset
C 1.8364925384521484 -0.02808132953941822 0.03787011280655861
C 4.6995978355407715 0.016572898253798485 0.04191412404179573
C 5.970155239105225 1.9807353019714355 1.8001153469085693
C 8.011474609375 -0.021448392421007156 2.3554491996765137
C 6.042115688323975 -2.0589511394500732 1.6348776817321777
O 6.968969821929932 -4.219266891479492 0.2705332040786743
H 1.1372371912002563 -1.6567418575286865 -1.0283889770507812
H 1.0841169357299805 1.6828389167785645 -0.8481658101081848
H 1.07069993019104 -0.14386485517024994 1.9566224813461304
H 5.429088592529297 0.12003540247678757 -1.9010645151138306
H 4.848791599273682 2.4970462322235107 3.4643216133117676
H 6.638494491577148 3.7053372859954834 0.8818218111991882
H 9.645010948181152 0.06818132102489471 1.085042953491211
H 8.682875633239746 -0.0775354653596878 4.308159828186035
H 4.928991794586182 -2.683335542678833 3.270284414291382
H 7.946865081787109 -3.5391736030578613 -1.1282421350479126
