17
Generated by QM7 dataset
C 9.164755821228027 3.1495308876037598 -3.459238290786743
C 9.050994873046875 3.031593084335327 -0.5992132425308228
O 11.108566284179688 4.490121364593506 0.38763952255249023
N 10.927189826965332 4.388416290283203 3.035334825515747
C 12.885626792907715 2.823024034500122 4.1545820236206055
C 10.314729690551758 6.680956840515137 4.089272975921631
N 9.391636848449707 8.626373291015625 2.9500892162323
H 7.645793914794922 2.0313990116119385 -4.305514335632324
H 10.982634544372559 2.4379923343658447 -4.14811897277832
H 8.997325897216797 5.106266975402832 -4.114500522613525
H 9.221220970153809 1.0656354427337646 0.02724985033273697
H 7.248913764953613 3.80808162689209 0.0623987577855587
H 12.935345649719238 0.9655744433403015 3.245453357696533
H 12.520437240600586 2.5288314819335938 6.169898986816406
H 14.741715431213379 3.7111196517944336 3.939077377319336
H 10.660455703735352 6.763122081756592 6.142970561981201
H 9.270221710205078 8.137292861938477 1.0735912322998047
