14
Generated by QM7 dataset
O 2.5961625576019287 -1.3568800687789917 -0.8871508240699768
C 3.383554697036743 0.15756537020206451 -2.8015756607055664
O 2.5696685314178467 -0.02630498819053173 -4.955183029174805
C 5.337191104888916 2.110408306121826 -1.9744048118591309
N 6.029662609100342 1.6358413696289062 0.7030726075172424
C 8.61631965637207 0.7164707779884338 1.0377620458602905
C 7.941422939300537 3.4158689975738525 1.612276554107666
H 3.5207865238189697 -0.8212938904762268 0.6417132019996643
H 4.451042175292969 3.9743964672088623 -2.1320645809173584
H 6.950016021728516 1.9920358657836914 -3.2679600715637207
H 9.767181396484375 0.32348331809043884 -0.6104004383087158
H 8.926612854003906 -0.5467166900634766 2.6214659214019775
H 7.78268575668335 3.9719018936157227 3.576968193054199
H 8.608137130737305 4.881068229675293 0.34608444571495056
