14
Generated by QM7 dataset
C 1.955772042274475 -0.011999760754406452 -0.10196962207555771
C 4.771407127380371 0.030292309820652008 -0.038342542946338654
C 6.263818740844727 -1.3065377473831177 -2.053943395614624
C 6.231258392333984 1.543018102645874 -1.9685466289520264
C 8.472095489501953 2.8431684970855713 -1.174351453781128
C 10.346420288085938 3.9384727478027344 -0.5188432335853577
H 1.1955351829528809 1.4754414558410645 1.1168092489242554
H 1.256138801574707 -1.8313146829605103 0.5886496901512146
H 1.214300274848938 0.2802274823188782 -2.011197805404663
H 5.4838151931762695 -0.06506326794624329 1.881392478942871
H 5.253986835479736 -2.224188804626465 -3.5820515155792236
H 7.969088554382324 -2.2906882762908936 -1.4832082986831665
H 5.153717994689941 2.485689163208008 -3.439207077026367
H 12.010305404663086 4.910661220550537 0.06181294098496437
