11
Generated by QM7 dataset
N 2.006700277328491 -0.09569573402404785 -0.008919507265090942
C 4.201409339904785 -0.06083028391003609 -0.022922378033399582
C 6.901147365570068 0.11026552319526672 -0.040515728294849396
N 8.172876358032227 -1.9639735221862793 -0.16882812976837158
O 10.751483917236328 -1.2250149250030518 -0.11187178641557693
C 10.850127220153809 1.4283872842788696 -0.6738385558128357
C 8.336942672729492 2.4771852493286133 0.16680613160133362
H 11.135551452636719 1.6499388217926025 -2.712550640106201
H 12.438423156738281 2.2956581115722656 0.32416361570358276
H 7.627388000488281 3.986056089401245 -1.0458310842514038
H 8.365345001220703 3.086395263671875 2.141305446624756
