19
Generated by QM7 dataset
C 1.9836077690124512 -0.5812986493110657 -0.24475732445716858
C 4.867839813232422 -0.8336337804794312 0.004346370231360197
C 5.461686611175537 -2.6627185344696045 2.1745078563690186
C 5.953487873077393 -1.8242093324661255 -2.4932100772857666
N 5.901010036468506 1.6695919036865234 0.5507606863975525
C 8.375606536865234 2.2203526496887207 0.9166494607925415
N 9.290102005004883 4.4596781730651855 1.0914491415023804
H 1.4738540649414062 0.728281557559967 -1.7672908306121826
H 1.1430197954177856 0.1500253528356552 1.5019354820251465
H 1.1008788347244263 -2.4079079627990723 -0.6595522165298462
H 4.772106647491455 -1.9252530336380005 3.9828624725341797
H 7.495901107788086 -2.9863908290863037 2.3753857612609863
H 4.572248935699463 -4.506411075592041 1.8592637777328491
H 5.5780558586120605 -0.5062387585639954 -4.04667854309082
H 5.123047351837158 -3.6535587310791016 -2.9958395957946777
H 8.005295753479004 -2.0801539421081543 -2.38547682762146
H 4.737486839294434 3.1472065448760986 0.19675828516483307
H 9.636204719543457 0.5682973265647888 1.0635567903518677
H 7.871994495391846 5.758486747741699 0.9341294169425964
