13
Generated by QM7 dataset
C 2.1418912410736084 -0.6056005358695984 1.3647223711013794
C 4.779627799987793 -1.4363619089126587 0.7381459474563599
O 5.512463569641113 -3.6233232021331787 0.9423686265945435
C 6.577154159545898 0.6250458359718323 -0.16935725510120392
O 5.797509670257568 2.78481388092041 -0.43958809971809387
C 9.235431671142578 -0.13638153672218323 -0.6728180646896362
C 10.936563491821289 1.5552257299423218 -1.480146884918213
H 2.1850714683532715 0.7212139964103699 2.946725606918335
H 1.014442801475525 -2.250361442565918 1.9083399772644043
H 1.2671369314193726 0.2699473798274994 -0.288485586643219
H 9.743257522583008 -2.097123622894287 -0.3634132444858551
H 10.43907356262207 3.522827386856079 -1.7949185371398926
H 12.875761985778809 0.9986446499824524 -1.8455065488815308
