15
Generated by QM7 dataset
N 2.0363311767578125 -0.15902045369148254 0.39005836844444275
C 4.567713737487793 0.27771416306495667 -0.6006305813789368
C 4.837151050567627 -1.1457598209381104 -3.038055896759033
C 6.57246732711792 -2.9367101192474365 -3.4874706268310547
C 4.9058990478515625 3.0643231868743896 -1.0063170194625854
C 6.712118148803711 4.477195739746094 0.06793565303087234
H 1.8997794389724731 0.723538339138031 2.094496965408325
H 1.8537079095840454 -2.038882255554199 0.7581392526626587
H 5.944360256195068 -0.4140578806400299 0.7873544096946716
H 3.5032122135162354 -0.6724023818969727 -4.531015396118164
H 7.946468353271484 -3.489794969558716 -2.06977915763855
H 6.643256664276123 -3.8877146244049072 -5.303554058074951
H 3.5605275630950928 3.97802472114563 -2.2671990394592285
H 8.102106094360352 3.6706418991088867 1.3415544033050537
H 6.829470157623291 6.489508628845215 -0.3171338438987732
