14
Generated by QM7 dataset
N 5.72632360458374 7.7594990730285645 -3.285459041595459
C 4.733140468597412 6.978815078735352 -1.214319109916687
N 5.83742094039917 5.369845867156982 0.4580696225166321
C 8.105942726135254 3.9404568672180176 -0.1720973551273346
C 10.460711479187012 5.607044219970703 -0.12081018835306168
C 12.725926399230957 4.0687127113342285 -0.5391388535499573
N 14.507068634033203 2.823005199432373 -0.8389627933502197
H 4.493144989013672 8.957244873046875 -4.184137344360352
H 2.831338882446289 7.597965240478516 -0.6187908053398132
H 4.667680263519287 4.51735258102417 1.7171752452850342
H 7.882369041442871 3.0222957134246826 -2.017566204071045
H 8.306272506713867 2.414314031600952 1.2173048257827759
H 10.60072135925293 6.56855583190918 1.7091816663742065
H 10.356870651245117 7.088967323303223 -1.5623310804367065
