14
Generated by QM7 dataset
C 5.748641490936279 -2.4295830726623535 -0.0029290756210684776
N 4.591146469116211 0.03367491811513901 0.0006803013966418803
C 5.844526290893555 2.294618844985962 -1.8897260815720074e-05
O 4.701752185821533 4.30840539932251 -0.000907068548258394
C 8.576994895935059 2.2854347229003906 0.0
C 10.826070785522461 2.2854347229003906 0.0
C 13.554835319519043 2.2854347229003906 0.0
H 4.258913516998291 -3.8586506843566895 0.00529123330488801
H 6.929002285003662 -2.6377174854278564 1.679834246635437
H 6.912315845489502 -2.6396450996398926 -1.697049617767334
H 2.685621976852417 0.1921662539243698 -0.002759000053629279
H 14.299613952636719 4.214505195617676 -0.02218538522720337
H 14.299293518066406 1.3014732599258423 -1.659576416015625
H 14.299293518066406 1.3399102687835693 1.6817617416381836
