16
Generated by QM7 dataset
C 7.034600257873535 8.269668579101562 -7.0097880363464355
C 8.436209678649902 6.504758834838867 -5.306180953979492
N 10.175910949707031 7.336313724517822 -3.802790403366089
O 11.176406860351562 5.281633377075195 -2.4477622509002686
C 13.074127197265625 6.175228118896484 -0.7289807796478271
C 15.504843711853027 6.780677318572998 -2.1612796783447266
O 15.191980361938477 8.974876403808594 -3.6970224380493164
H 7.607943058013916 10.22695255279541 -6.682997703552246
H 5.008398056030273 8.07105827331543 -6.659224987030029
H 7.420765399932861 7.751524448394775 -8.971002578735352
H 7.9362640380859375 4.482354640960693 -5.413082599639893
H 13.421534538269043 4.658628463745117 0.6332661509513855
H 12.356654167175293 7.827907085418701 0.29543977975845337
H 16.032209396362305 5.216702461242676 -3.4059290885925293
H 17.053247451782227 7.149343967437744 -0.8440650701522827
H 13.445987701416016 8.8806734085083 -4.320443153381348
