18
Generated by QM7 dataset
C 1.6025633811950684 0.06990096718072891 0.0328812338411808
C 4.086834907531738 0.2201341986656189 0.5066733956336975
C 5.721901893615723 2.531496047973633 0.38395455479621887
C 4.3945770263671875 5.07977294921875 0.17024542391300201
C 6.393680572509766 6.950450420379639 1.041579246520996
C 8.192983627319336 5.403936386108398 2.669257164001465
N 7.154597759246826 2.8421480655670166 2.732166051864624
H 0.6225891709327698 -1.7265105247497559 0.18336012959480286
H 0.4842990040779114 1.7030967473983765 -0.4983396828174591
H 5.060081958770752 -1.519906759262085 1.0141971111297607
H 7.048923969268799 2.3043320178985596 -1.1960455179214478
H 2.753009796142578 5.202094554901123 1.4326391220092773
H 3.753582000732422 5.4834370613098145 -1.7550264596939087
H 7.402284145355225 7.737351417541504 -0.5873268842697144
H 5.543133735656738 8.51860237121582 2.088714361190796
H 10.087074279785156 5.3987016677856445 1.8312768936157227
H 8.343311309814453 6.172034740447998 4.583039283752441
H 8.571608543395996 1.5467031002044678 2.8352882862091064
