15
Generated by QM7 dataset
C 1.846205711364746 -0.10079798847436905 0.07889606803655624
C 4.721612930297852 0.01661069318652153 -0.06789786368608475
C 5.701530456542969 -1.4617598056793213 -2.3420510292053223
C 5.566490650177002 2.7562410831451416 -0.2083045095205307
O 5.880147457122803 3.9312539100646973 -2.176870107650757
C 5.949273586273193 4.031220436096191 2.1855249404907227
C 6.266653060913086 5.093416690826416 4.166411399841309
H 1.1458921432495117 0.9120007157325745 1.7427242994308472
H 1.193154215812683 -2.0601038932800293 0.20456285774707794
H 0.9726609587669373 0.7658681869506836 -1.586576223373413
H 5.529924392700195 -0.8327456116676331 1.641945242881775
H 4.91780424118042 -0.7362561821937561 -4.115899085998535
H 5.196406841278076 -3.462639570236206 -2.190230369567871
H 7.763486385345459 -1.3290821313858032 -2.4701743125915527
H 6.5533623695373535 6.054928302764893 5.911800384521484
