16
Generated by QM7 dataset
C 1.907470703125 0.06500657647848129 0.03649061173200607
C 4.714356422424316 -0.012226528488099575 -0.03864489868283272
C 6.186679840087891 -2.064866065979004 -0.17863580584526062
C 8.925629615783691 -1.3937296867370605 -0.1382901519536972
C 8.893807411193848 1.4541254043579102 -0.6093233227729797
C 6.24771785736084 2.360456943511963 0.11289224028587341
H 1.0913735628128052 -1.8328075408935547 -0.07226312905550003
H 1.1756553649902344 1.1646760702133179 -1.5547155141830444
H 1.2577828168869019 0.9397608041763306 1.7940304279327393
H 5.5068888664245605 -3.9911205768585205 -0.25169262290000916
H 9.749720573425293 -1.852763056755066 1.702945590019226
H 9.983479499816895 -2.381735324859619 -1.61361825466156
H 9.234278678894043 1.8317304849624634 -2.620974540710449
H 10.372101783752441 2.437708854675293 0.45247602462768555
H 5.58228874206543 3.8108973503112793 -1.201676845550537
H 6.209980010986328 3.122016429901123 2.0369925498962402
