19
Generated by QM7 dataset
C 2.068399667739868 0.045995935797691345 0.042027510702610016
N 4.826096057891846 0.0248876940459013 -0.003911733161658049
C 5.8528218269348145 1.9326796531677246 1.781992793083191
C 7.828322887420654 -0.051835186779499054 2.5763580799102783
C 5.828803539276123 -2.0042245388031006 1.6974842548370361
C 6.790390491485596 -4.296141147613525 0.2243104875087738
N 8.166376113891602 -6.034122467041016 1.8857766389846802
H 1.3352237939834595 -1.58693528175354 -0.9967549443244934
H 1.364382266998291 1.7446707487106323 -0.9080889821052551
H 1.262790560722351 0.0026078219525516033 1.950594186782837
H 4.591826438903809 2.5078177452087402 3.3254833221435547
H 6.622526168823242 3.6286144256591797 0.8848453760147095
H 9.564640998840332 -0.0061227125115692616 1.4464341402053833
H 8.319292068481445 -0.08908168971538544 4.581546306610107
H 4.541749000549316 -2.558122158050537 3.2350220680236816
H 8.033093452453613 -3.724064350128174 -1.3317466974258423
H 5.1878275871276855 -5.314892768859863 -0.601953387260437
H 9.795149803161621 -5.184501647949219 2.4712514877319336
H 8.721256256103516 -7.565064907073975 0.852984607219696
