16
Generated by QM7 dataset
C 1.889726161956787 0.0 0.0
C 4.618490695953369 0.0 0.0
C 6.86756706237793 0.0 0.0
C 9.575582504272461 -0.005669178441166878 0.08241095393896103
C 11.01054573059082 -1.3694655895233154 -1.961762547492981
C 11.019673347473145 1.4640275239944458 -1.892522931098938
N 13.356017112731934 2.7925994396209717 -1.2261676788330078
H 1.1451174020767212 1.9291458129882812 0.021977514028549194
H 1.1450228691101074 -0.9836780428886414 1.6596330404281616
H 1.1451929807662964 -0.9454677700996399 -1.6817617416381836
H 10.380247116088867 -0.09072574973106384 1.96786630153656
H 9.960330963134766 -2.277252197265625 -3.469007968902588
H 12.714266777038574 -2.372947931289673 -1.429086446762085
H 9.924180030822754 2.401331663131714 -3.3607077598571777
H 14.293585777282715 1.9080942869186401 0.20444947481155396
H 12.95719051361084 4.564444541931152 -0.5805427432060242
