18
Generated by QM7 dataset
N 2.2566542625427246 0.6359495520591736 0.3341413736343384
C 4.883676052093506 0.07156392931938171 -0.2758811116218567
C 4.973343372344971 -1.1756175756454468 -2.81962251663208
C 5.936196804046631 -3.4770772457122803 -3.2584359645843506
C 6.287685871124268 2.543212413787842 -0.17822007834911346
C 7.682039260864258 3.328620195388794 2.186753273010254
C 9.139830589294434 2.59287428855896 -0.13713742792606354
H 2.1872446537017822 1.3749080896377563 2.1086697578430176
H 1.2838798761367798 -1.0227009057998657 0.411487877368927
H 5.6264328956604 -1.2172104120254517 1.1692302227020264
H 4.210177421569824 -0.09881377965211868 -4.395956516265869
H 6.725592136383057 -4.622043132781982 -1.7508690357208252
H 5.9504265785217285 -4.260085105895996 -5.154209136962891
H 5.364838123321533 4.009356498718262 -1.2795902490615845
H 7.729547023773193 2.0443058013916016 3.7822868824005127
H 7.63753604888916 5.309828281402588 2.706352472305298
H 10.076435089111328 4.075610160827637 -1.1968013048171997
H 10.147337913513184 0.8095586895942688 -0.12772658467292786
