13
Generated by QM7 dataset
C 2.6346182823181152 1.4926190376281738 0.25169262290000916
C 4.870882511138916 -0.41948139667510986 0.044654227793216705
C 6.499543190002441 1.8081845045089722 -0.014097357168793678
C 4.585420608520508 3.4491093158721924 0.16504867374897003
N 5.527637958526611 5.78156042098999 0.1577165424823761
N 8.108399391174316 5.690494537353516 -0.02900729700922966
C 8.67017650604248 3.1951301097869873 -0.13388709723949432
H 1.5060739517211914 1.5213806629180908 1.9869147539138794
H 1.2746769189834595 1.6070986986160278 -1.305158257484436
H 5.01470947265625 -1.6014484167099 -1.6492962837219238
H 5.247107982635498 -1.6840672492980957 1.6405657529830933
H 4.665185928344727 7.4919514656066895 0.26265302300453186
H 10.625798225402832 2.6221084594726562 -0.2893926501274109
