18
Generated by QM7 dataset
C 5.076163291931152 -1.9676584005355835 2.3834927082061768
C 6.150567054748535 -0.7936282753944397 -0.008636048063635826
C 5.964164733886719 2.0382397174835205 0.05412175506353378
C 7.965611457824707 3.591216564178467 -0.06751991808414459
C 7.777923583984375 6.422536849975586 -0.025756966322660446
C 9.181706428527832 7.532769680023193 2.2221667766571045
H 5.224506855010986 -4.029122829437256 2.294581174850464
H 3.0781748294830322 -1.4828870296478271 2.6248674392700195
H 6.102889537811279 -1.323526382446289 4.060681343078613
H 5.10037088394165 -1.491145133972168 -1.6503922939300537
H 8.116127967834473 -1.4018744230270386 -0.24332113564014435
H 4.068901538848877 2.8284854888916016 0.18925607204437256
H 9.858285903930664 2.801443338394165 -0.22453725337982178
H 5.80028772354126 7.035261631011963 0.035035520792007446
H 8.588767051696777 7.167674541473389 -1.7799519300460815
H 8.39081859588623 6.849916934967041 4.009356498718262
H 9.03721809387207 9.59618091583252 2.2055749893188477
H 11.189502716064453 7.033806324005127 2.1736764907836914
