17
Generated by QM7 dataset
C 1.910361886024475 -0.43405118584632874 -0.000869274022988975
C 4.711918830871582 -0.08227867633104324 -0.0016440617619082332
C 5.931888103485107 2.150489330291748 0.0
C 4.61815071105957 4.672215461730957 0.004856596235185862
C 8.58884334564209 2.150489330291748 0.0
C 10.837919235229492 2.150489330291748 0.0
C 13.566683769226074 2.150489330291748 0.0
H 1.4561662673950195 -2.452051877975464 -0.02218538522720337
H 1.0545616149902344 0.4151539206504822 -1.6804200410842896
H 1.0617992877960205 0.3787578046321869 1.700640082359314
H 5.815367698669434 -1.8231699466705322 -0.0031369454227387905
H 2.5566482543945312 4.515141487121582 -0.0005291232955642045
H 5.159575939178467 5.765989303588867 -1.6681368350982666
H 5.15171480178833 5.754952907562256 1.68743097782135
H 14.31125545501709 4.079654216766357 -0.022072000429034233
H 14.311273574829102 1.1667735576629639 -1.6596519947052002
H 14.311273574829102 1.205021619796753 1.6817429065704346
