18
Generated by QM7 dataset
C 1.9892202615737915 -0.07386939227581024 -0.07498433440923691
C 4.811034679412842 0.11778663098812103 -0.005990431644022465
C 6.543573379516602 -1.1175462007522583 -2.0700058937072754
C 8.562368392944336 -0.629203200340271 0.01037459634244442
C 6.460954666137695 -1.4546356201171875 1.8921828269958496
C 8.553240776062012 2.223924160003662 0.24649587273597717
N 5.823512554168701 2.7209410667419434 0.2546406090259552
H 1.1390702724456787 0.69523024559021 1.6481813192367554
H 1.3839976787567139 -2.04526948928833 -0.2412046492099762
H 1.204643726348877 0.956749439239502 -1.6888482570648193
H 6.76627779006958 -0.0919729694724083 -3.852112293243408
H 6.158485412597656 -3.1071066856384277 -2.5006368160247803
H 10.334779739379883 -1.671141505241394 -0.042027510702610016
H 6.064301013946533 -3.486865997314453 1.964294672012329
H 6.60493278503418 -0.7451001405715942 3.830796241760254
H 9.429450035095215 2.869889259338379 2.0045835971832275
H 9.48897647857666 3.1403090953826904 -1.3573524951934814
H 5.374683380126953 3.8835761547088623 -1.2153584957122803
