15
Generated by QM7 dataset
C 2.029376983642578 -0.22143810987472534 -0.6812273859977722
C 4.544829368591309 0.01989881694316864 -0.5725114345550537
C 5.878654479980469 2.3717386722564697 -0.3220282196998596
C 8.383637428283691 2.6192171573638916 -0.21319890022277832
C 9.077677726745605 5.3168768882751465 0.04495658352971077
O 6.738687992095947 6.6936936378479 0.08305346220731735
C 4.687408924102783 4.916670322418213 -0.14284439384937286
H 1.178017497062683 -2.0787365436553955 -0.871995210647583
H 0.7527157068252563 1.3789331912994385 -0.587005615234375
H 5.692573070526123 -1.6832735538482666 -0.6801691055297852
H 9.748662948608398 1.105300784111023 -0.2969137728214264
H 10.0947847366333 5.682217597961426 1.8065593242645264
H 10.211626052856445 5.97367000579834 -1.5531847476959229
H 3.601081132888794 5.394223213195801 -1.836511492729187
H 3.483464479446411 5.1022796630859375 1.5282970666885376
