16
Generated by QM7 dataset
N 1.4586795568466187 0.06030116230249405 -0.14352470636367798
C 4.174121379852295 0.011224973015487194 0.35901015996932983
C 5.872550964355469 -1.7049486637115479 -1.1500495672225952
C 5.083193302154541 -2.762061595916748 -3.6512911319732666
C 5.543436050415039 -0.5900669693946838 -5.492300033569336
O 5.305576324462891 1.697465419769287 -4.039119720458984
C 6.054002285003662 1.1075117588043213 -1.4678069353103638
H 0.7428513169288635 1.8158944845199585 0.18774428963661194
H 0.5205061435699463 -1.1510132551193237 1.0175796747207642
H 4.655699253082275 0.24269752204418182 2.346095085144043
H 7.413471221923828 -2.689080238342285 -0.24728956818580627
H 6.160412788391113 -4.444125652313232 -4.185781002044678
H 3.078042507171631 -3.2829644680023193 -3.6324315071105957
H 7.471126556396484 -0.6590420007705688 -6.24535608291626
H 4.205869197845459 -0.5823001861572266 -7.067008972167969
H 7.69059944152832 2.073596477508545 -0.7057749032974243
