17
Generated by QM7 dataset
C 1.7933311462402344 -0.2814180254936218 0.1390838474035263
C 4.641696453094482 -0.17052888870239258 -0.28961941599845886
C 5.492054462432861 -2.182935953140259 -2.1649270057678223
C 5.429145336151123 2.4258224964141846 -1.2475972175598145
O 4.084132671356201 3.7130284309387207 -2.6506054401397705
C 8.050365447998047 3.3529977798461914 -0.4875871241092682
O 8.528013229370117 5.835493087768555 -1.3862842321395874
H 1.1911699771881104 1.2037177085876465 1.4492876529693604
H 1.2430051565170288 -2.106553316116333 0.9432756900787354
H 0.7464229464530945 -0.01838703453540802 -1.6272621154785156
H 5.575069904327393 -0.487190306186676 1.5332293510437012
H 4.622118949890137 -1.8944504261016846 -4.021734237670898
H 4.981865882873535 -4.074400901794434 -1.5001779794692993
H 7.543824672698975 -2.131913423538208 -2.429394006729126
H 9.475540161132812 2.086503267288208 -1.2807807922363281
H 8.195061683654785 3.373331308364868 1.5727245807647705
H 7.19996976852417 6.200134754180908 -2.6237146854400635
