13
Generated by QM7 dataset
O 1.9356086254119873 -0.11740868538618088 -0.752016544342041
C 4.519525527954102 -0.025152254849672318 0.03431742638349533
C 5.531965255737305 2.707637310028076 0.0
C 4.488364219665527 4.154902935028076 2.1578593254089355
C 3.640084981918335 5.335962772369385 3.8998467922210693
C 8.260729789733887 2.707637310028076 0.0
C 10.509806632995605 2.707637310028076 0.0
H 1.3765331506729126 -1.8564858436584473 -0.5492677688598633
H 5.588695049285889 -1.219799280166626 -1.277927279472351
H 4.658212661743164 -0.8634347915649414 1.9247616529464722
H 4.856331825256348 3.6194679737091064 -1.7370740175247192
H 2.882474899291992 6.38784122467041 5.4418253898620605
H 12.523933410644531 2.722301721572876 0.0057636648416519165
