13
Generated by QM7 dataset
C 1.889726161956787 0.0 0.0
C 4.618490695953369 0.0 0.0
C 6.86756706237793 0.0 0.0
C 9.524521827697754 0.0 0.0
C 10.766109466552734 2.150489330291748 0.0
C 13.423065185546875 2.150489330291748 0.0
C 15.672141075134277 2.150489330291748 0.0
H 1.1451740264892578 1.9291836023330688 0.02209089882671833
H 1.1450417041778564 -0.9836591482162476 1.6596519947052002
H 1.1450417041778564 -0.9453921914100647 -1.6817429065704346
H 10.492269515991211 -1.80946946144104 -0.0
H 9.796151161193848 3.9589574337005615 0.0
H 17.683263778686523 2.1509618759155273 -0.0
