16
Generated by QM7 dataset
N 1.8398940563201904 -0.10682621598243713 -0.3686288893222809
C 4.553295135498047 -0.0010960411746054888 0.0013795000268146396
C 5.792426109313965 -2.3182404041290283 -1.0498751401901245
C 7.65938138961792 -1.7449352741241455 -2.6627941131591797
C 7.934903144836426 1.0526530742645264 -2.973994255065918
C 5.786020278930664 2.1393210887908936 -1.436853289604187
C 5.063407897949219 4.566012859344482 -1.5138596296310425
H 1.0631221532821655 1.4939607381820679 0.354248046875
H 1.1287145614624023 -1.5556981563568115 0.6728370189666748
H 5.0015950202941895 0.15149934589862823 2.0185675621032715
H 5.256613254547119 -4.220816612243652 -0.5366443991661072
H 8.824397087097168 -3.1099600791931152 -3.6377038955688477
H 9.761815071105957 1.6702154874801636 -2.2292532920837402
H 7.774843692779541 1.5792819261550903 -4.967957496643066
H 6.0518670082092285 5.9288835525512695 -2.6862080097198486
H 3.4570271968841553 5.24317741394043 -0.4332953095436096
