14
Generated by QM7 dataset
N 2.761267900466919 4.478461742401123 -0.5945645570755005
C 4.950628757476807 3.3139560222625732 -1.2026784420013428
O 5.092547416687012 1.6428900957107544 -2.782432794570923
O 6.853753089904785 4.28109884262085 0.18791437149047852
C 9.30264949798584 3.20975661277771 -0.2360456883907318
C 11.097681045532227 5.348718643188477 -0.7086473107337952
C 13.150169372558594 5.853918075561523 0.6839863657951355
H 2.746509075164795 5.830277442932129 0.7477646470069885
H 1.1571359634399414 3.9570865631103516 -1.4799957275390625
H 9.363271713256836 1.9105887413024902 -1.8457332849502563
H 9.82512092590332 2.1506407260894775 1.4643110036849976
H 10.668940544128418 6.543233394622803 -2.3252134323120117
H 13.660565376281738 4.715641498565674 2.3123066425323486
H 14.367341995239258 7.437924385070801 0.21482406556606293
