20
Generated by QM7 dataset
C 1.8506654500961304 0.021372802555561066 -0.02394283004105091
C 4.71273136138916 0.04478650912642479 0.06937184929847717
C 5.941582202911377 2.002920627593994 1.8670682907104492
C 7.9820332527160645 0.0013606027932837605 2.438861608505249
C 5.999597072601318 -2.0390522480010986 1.7164571285247803
C 6.941965579986572 -4.348562240600586 0.2882021367549896
N 8.384696006774902 -5.992378234863281 1.9689245223999023
H 1.1723860502243042 -1.6110482215881348 -1.0980253219604492
H 1.1400907039642334 1.7301576137542725 -0.947508692741394
H 1.0248929262161255 -0.07216864079236984 1.8704887628555298
H 5.505055904388428 0.1576598584651947 -1.8493993282318115
H 4.789586544036865 2.5006179809570312 3.5153629779815674
H 6.619124889373779 3.7382373809814453 0.9748719334602356
H 9.615777015686035 0.1020452082157135 1.1681909561157227
H 8.654417037963867 -0.053176894783973694 4.391213417053223
H 4.82384729385376 -2.585995674133301 3.3429067134857178
H 8.12570858001709 -3.8014109134674072 -1.3206162452697754
H 5.33103084564209 -5.411004066467285 -0.45846647024154663
H 9.97741413116455 -5.079508304595947 2.552075147628784
H 8.98646068572998 -7.534961700439453 0.9849441647529602
