17
Generated by QM7 dataset
C 3.5573716163635254 -0.3584243655204773 2.5279433727264404
C 4.352738380432129 0.5196179747581482 -0.09386269748210907
C 5.65749979019165 3.065967321395874 -0.039438582956790924
C 4.325904369354248 5.196274280548096 -0.4258686900138855
C 8.422395706176758 3.043195962905884 0.32165029644966125
C 9.470173835754395 3.824049711227417 2.8587398529052734
O 9.686924934387207 1.282670497894287 1.9596649408340454
H 2.622354030609131 -2.199622392654419 2.406679630279541
H 2.228780746459961 0.9740404486656189 3.3897340297698975
H 5.181572437286377 -0.5547857880592346 3.7928314208984375
H 2.6749074459075928 0.6027092337608337 -1.3099960088729858
H 5.605759143829346 -0.8906657099723816 -0.9528188109397888
H 2.296886444091797 5.155890941619873 -0.7275256514549255
H 5.239019870758057 7.033315181732178 -0.44062745571136475
H 9.471023559570312 3.6160855293273926 -1.346940040588379
H 8.183704376220703 4.158607006072998 4.413681983947754
H 11.166618347167969 4.964367389678955 2.8924527168273926
