15
Generated by QM7 dataset
C 1.7883801460266113 -0.02328142523765564 1.0634434223175049
C 4.482468128204346 -0.06542231887578964 0.2503887116909027
C 5.303535461425781 1.4216598272323608 -2.0298492908477783
N 7.961151599884033 2.175093650817871 -2.3395376205444336
N 9.293106079101562 0.011697405017912388 -2.925258159637451
C 7.889153003692627 -1.9843825101852417 -2.7256085872650146
C 5.238320827484131 -1.421905517578125 -2.1347479820251465
H 1.4090931415557861 1.674561858177185 2.183408498764038
H 1.373887538909912 -1.675072193145752 2.2379648685455322
H 0.4873981773853302 -0.03594259172677994 -0.5455828309059143
H 5.756257057189941 -0.13139265775680542 1.854085922241211
H 3.9075567722320557 2.477128505706787 -3.0911383628845215
H 8.244062423706055 3.5282509326934814 -3.690521717071533
H 8.548062324523926 -3.9306304454803467 -3.034087657928467
H 3.8105759620666504 -2.2989840507507324 -3.3027310371398926
