10
Generated by QM7 dataset
C 1.889726161956787 0.0 0.0
C 4.618490695953369 0.0 0.0
C 6.86756706237793 0.0 0.0
C 9.594460487365723 0.03053797408938408 0.0
O 10.647208213806152 -2.2951290607452393 0.0
O 10.785839080810547 2.0011632442474365 -0.0
H 1.1450228691101074 1.9291269779205322 0.022072000429034233
H 1.145079493522644 -0.983715832233429 1.6596330404281616
H 1.145079493522644 -0.9454677700996399 -1.681723952293396
H 9.354351997375488 -3.609830379486084 0.0
