13
Generated by QM7 dataset
C 1.889726161956787 0.0 0.0
C 4.138802528381348 0.0 0.0
C 6.86756706237793 0.0 0.0
O 7.792380332946777 -2.261699914932251 1.2104451656341553
C 8.783295631408691 -1.5904501676559448 3.650402784347534
C 8.971531867980957 1.2029051780700684 3.641710042953491
C 7.873317241668701 2.109142303466797 1.56399405002594
H -0.12349360436201096 -0.01298241876065731 0.007332137320190668
H 7.640370845794678 0.0582035630941391 -1.9168626070022583
H 10.626043319702148 -2.4935126304626465 3.887261152267456
H 7.488946914672852 -2.2654037475585938 5.115469932556152
H 9.825082778930664 2.311380624771118 5.124956130981445
H 7.702901840209961 4.081355094909668 1.0731754302978516
