15
Generated by QM7 dataset
C 7.91063928604126 -1.8083544969558716 1.9279364347457886
O 9.159313201904297 0.43047961592674255 1.123291015625
C 7.527629375457764 2.007323741912842 -0.3210833668708801
C 9.024179458618164 4.277867317199707 -1.0827186107635498
C 9.385967254638672 4.985116481781006 -3.4873950481414795
C 10.910901069641113 7.239351749420166 -4.093619346618652
O 11.23011302947998 7.918386936187744 -6.282904624938965
H 9.225907325744629 -2.910480499267578 3.078023672103882
H 7.345989227294922 -2.947084665298462 0.296630322933197
H 6.2570343017578125 -1.3430850505828857 3.0785717964172363
H 5.92310094833374 2.6022095680236816 0.8449532389640808
H 6.8190765380859375 0.9710357785224915 -1.968395471572876
H 9.846607208251953 5.352478981018066 0.46523168683052063
H 8.615412712097168 3.9601101875305176 -5.084856033325195
H 11.729397773742676 8.269403457641602 -2.4765238761901855
