15
Generated by QM7 dataset
N 1.7928965091705322 -0.059923216700553894 0.3531898260116577
C 4.523626327514648 -0.016894152387976646 -0.10971749573945999
C 5.811947345733643 1.950783133506775 1.6158102750778198
N 7.619942665100098 -0.013303671963512897 2.4802844524383545
C 5.8804121017456055 -2.001389980316162 1.5459660291671753
C 5.084062576293945 0.03367491811513901 -2.776064395904541
C 5.54748010635376 0.0742095485329628 -4.997305393218994
H 1.3220335245132446 -0.19254419207572937 2.21521258354187
H 0.9026088118553162 -1.5179225206375122 -0.5325059294700623
H 4.656984329223633 2.703310012817383 3.16544246673584
H 6.707715034484863 3.5570881366729736 0.6648812294006348
H 9.282769203186035 0.038493722677230835 1.5007449388504028
H 6.82822322845459 -3.54168701171875 0.5379672646522522
H 4.752151012420654 -2.848724365234375 3.0657970905303955
H 5.948990345001221 0.1197897419333458 -6.9708027839660645
