19
Generated by QM7 dataset
C 1.4052003622055054 -0.5080339908599854 -0.3362956643104553
C 4.252545356750488 -0.3972015380859375 0.03221983090043068
C 5.285583019256592 2.244654417037964 -0.5141189098358154
C 8.14704418182373 2.35223650932312 -0.12440066784620285
N 9.079416275024414 4.906144618988037 -0.6515775918960571
N 11.606112480163574 5.224903583526611 -0.4020959138870239
C 12.362909317016602 7.462396144866943 -1.012382984161377
H 0.7040552496910095 -2.4133691787719727 0.06028226390480995
H 0.8892106413841248 -0.02571917325258255 -2.2811450958251953
H 0.4409864842891693 0.8080657720565796 0.9365105032920837
H 5.1545491218566895 -1.7793471813201904 -1.2190245389938354
H 4.706287384033203 -0.9423308372497559 1.9782220125198364
H 4.354401588439941 3.618088483810425 0.7299067378044128
H 4.824395179748535 2.7781996726989746 -2.4643919467926025
H 9.077054023742676 0.9996273517608643 -1.38858962059021
H 8.614089965820312 1.827232837677002 1.824965238571167
H 8.089672088623047 6.170163631439209 0.42532065510749817
H 14.385578155517578 7.933448314666748 -0.8784580826759338
H 11.09012222290039 8.971928596496582 -1.6878656148910522
