19
Generated by QM7 dataset
N 1.4477758407592773 -0.15662050247192383 0.10591915249824524
C 4.188578128814697 -0.42212703824043274 0.49559956789016724
C 5.557155609130859 2.1524736881256104 0.17272096872329712
N 4.258781433105469 4.108340263366699 1.6853522062301636
C 8.377287864685059 2.0188510417938232 0.8811603784561157
C 9.849668502807617 0.19762755930423737 -0.733931839466095
C 11.111003875732422 -1.8016271591186523 0.16882812976837158
H 0.6397857069969177 -1.9039558172225952 0.17839014530181885
H 1.1371426582336426 0.4941066801548004 -1.6824042797088623
H 4.925646781921387 -1.807220697402954 -0.8531546592712402
H 4.503198623657227 -1.1606508493423462 2.4043173789978027
H 5.394431114196777 2.7270448207855225 -1.814382791519165
H 4.48551082611084 3.6899547576904297 3.551513433456421
H 2.362044334411621 3.8159050941467285 1.3964130878448486
H 8.576371192932129 1.5270309448242188 2.890695095062256
H 9.230273246765137 3.8938374519348145 0.6485918164253235
H 9.889522552490234 0.575440526008606 -2.754918336868286
H 11.149478912353516 -2.241725444793701 2.1725993156433105
H 12.155020713806152 -3.039416551589966 -1.0909199714660645
