11
Generated by QM7 dataset
C 1.8976818323135376 -0.23974955081939697 -0.2515225410461426
C 4.13969087600708 0.04200861230492592 -0.04646836593747139
C 6.808701992034912 0.3906819820404053 0.20805884897708893
O 8.248125076293945 -0.8965427875518799 -1.6931190490722656
C 8.2327241897583 1.8112080097198486 -1.811359167098999
C 10.622452735900879 2.9252960681915283 -1.2145836353302002
C 12.621688842773438 3.8737685680389404 -0.7121244072914124
H -0.09085803478956223 -0.4951649308204651 -0.43652674555778503
H 7.564346790313721 0.3836711049079895 2.1124682426452637
H 7.1668620109558105 2.670485496520996 -3.3345351219177246
H 14.398787498474121 4.710444927215576 -0.2680387496948242
