11
Generated by QM7 dataset
C 5.088881492614746 -2.084519147872925 0.7687405943870544
C 4.164124965667725 0.22298768162727356 0.27945271134376526
C 5.6151509284973145 2.474331855773926 0.17525319755077362
C 4.787148952484131 4.865553379058838 -0.3111811876296997
O 6.836991310119629 6.40439510345459 -0.21459729969501495
N 8.948684692382812 4.916575908660889 0.34128454327583313
N 8.160517692565918 2.539168357849121 0.5693367123603821
H 3.8583672046661377 -3.7239511013031006 0.8170230984687805
H 7.086756229400635 -2.3920342922210693 1.1312278509140015
H 2.1445178985595703 0.38763952255249023 -0.06529004126787186
H 3.00048828125 5.751116752624512 -0.7260894775390625
