20
Generated by QM7 dataset
C 1.9034833908081055 0.06812462955713272 -0.09074465185403824
C 4.713052749633789 -0.13392488658428192 -0.12020547688007355
C 6.030399322509766 -1.4677881002426147 -2.2615108489990234
C 6.234206676483154 1.3598469495773315 -2.014183521270752
N 8.578279495239258 2.6869258880615234 -1.2560253143310547
C 10.455382347106934 1.1952518224716187 0.11861810833215714
C 9.780712127685547 3.9170243740081787 -3.426602602005005
H 1.3211642503738403 1.70725417137146 1.0280109643936157
H 1.0786179304122925 -1.6234259605407715 0.766983151435852
H 1.1142959594726562 0.27355676889419556 -1.9925082921981812
H 5.455469131469727 -0.3771137595176697 1.770503282546997
H 4.899417400360107 -2.1990175247192383 -3.8063998222351074
H 7.6258955001831055 -2.6596384048461914 -1.7974319458007812
H 5.096364498138428 2.454810857772827 -3.3409602642059326
H 9.652645111083984 0.35300084948539734 1.828007698059082
H 12.01009750366211 2.4061882495880127 0.7572699785232544
H 11.262786865234375 -0.3146393895149231 -1.0453776121139526
H 8.461267471313477 5.218800067901611 -4.349847316741943
H 10.421196937561035 2.5374298095703125 -4.8321051597595215
H 11.40502643585205 5.053184509277344 -2.8276917934417725
