11
Generated by QM7 dataset
C 5.464256286621094 -2.0977282524108887 0.7296988368034363
C 4.3419671058654785 0.10367037355899811 0.18661046028137207
C 5.6817450523376465 2.4321532249450684 0.138214573264122
N 4.6834025382995605 4.664071083068848 -0.38336873054504395
C 6.6828083992004395 6.276385307312012 -0.19375361502170563
N 8.875571250915527 5.2029829025268555 0.41364216804504395
O 8.239980697631836 2.657975435256958 0.6390864849090576
H 4.377418518066406 -3.837674617767334 0.7480102777481079
H 7.464758396148682 -2.2422733306884766 1.1665090322494507
H 2.337345600128174 0.1703777015209198 -0.24010860919952393
H 6.541891574859619 8.28920841217041 -0.5060308575630188
