16
Generated by QM7 dataset
C 1.9838345050811768 -0.049132879823446274 0.809445321559906
C 4.762109756469727 0.0 0.0
C 5.155890941619873 -1.1868613958358765 -2.6287224292755127
C 4.444295883178711 -3.939512014389038 -2.749098062515259
C 2.640589952468872 -4.867424488067627 -4.262749671936035
C 5.672995567321777 2.5722384452819824 0.0
N 6.399047374725342 4.622572422027588 0.0
H 1.7296851873397827 0.883994996547699 2.642441749572754
H 1.284900426864624 -1.9871982336044312 1.0024996995925903
H 0.779530942440033 0.9342805743217468 -0.560492753982544
H 5.8471527099609375 -1.0915435552597046 1.3909707069396973
H 7.155618190765381 -1.0360990762710571 -3.1622865200042725
H 4.103294849395752 -0.10635378956794739 -4.055560111999512
H 5.492659091949463 -5.234050273895264 -1.5419787168502808
H 1.5519187450408936 -3.6645190715789795 -5.517735958099365
H 2.215477228164673 -6.875579357147217 -4.28140115737915
