15
Generated by QM7 dataset
C 1.8767814636230469 0.09996651113033295 0.0033826096914708614
C 4.678470611572266 -0.05070135369896889 0.006462863180786371
C 6.14797830581665 -2.1238632202148438 0.004724315367639065
C 8.875211715698242 -1.3688231706619263 0.025927042588591576
O 10.071805953979492 -2.2270045280456543 -2.197827100753784
C 8.705099105834961 1.4555048942565918 -0.0032503290567547083
C 6.2725300788879395 2.17167329788208 0.0014739864272996783
H 1.0216237306594849 -1.78465735912323 -0.0032314315903931856
H 1.2029807567596436 1.1077574491500854 -1.6719162464141846
H 1.1995036602020264 1.097156047821045 1.6846152544021606
H 5.502126693725586 -4.058375835418701 0.007502212654799223
H 9.868074417114258 -2.074031114578247 1.6950277090072632
H 9.09538459777832 -1.5506336688995361 -3.599928379058838
H 10.319113731384277 2.699549436569214 -0.008371486328542233
H 5.582402229309082 4.091559410095215 -0.005782561842352152
