13
Generated by QM7 dataset
O 2.0189833641052246 -0.032919030636548996 -0.8218607902526855
C 4.573137283325195 0.0 0.0
C 5.484023094177246 2.5722384452819824 0.0
C 6.234773635864258 4.692322254180908 0.0
C 7.145659446716309 7.264560699462891 0.0
C 5.008284568786621 9.114545822143555 -0.3306642770767212
O 4.8759846687316895 11.131223678588867 0.8102578520774841
H 1.4575269222259521 -1.777306318283081 -0.7218753695487976
H 5.684692859649658 -1.1851038932800293 -1.2787587642669678
H 4.661217212677002 -0.8191207051277161 1.8966991901397705
H 8.468920707702637 7.56342077255249 -1.5619909763336182
H 8.127957344055176 7.7008795738220215 1.7675364017486572
H 3.631316661834717 8.659783363342285 -1.8322407007217407
