9
Generated by QM7 dataset
C 1.8751752376556396 0.010261212475597858 -0.013058007694780827
C 4.699106216430664 0.12778328359127045 0.04932185262441635
N 5.857546329498291 2.268087148666382 -0.2015581876039505
O 8.457337379455566 1.8505520820617676 0.013700514100492
H 1.2790422439575195 -1.9466824531555176 -0.28359121084213257
H 1.143907904624939 1.182703971862793 -1.550935983657837
H 1.1313223838806152 0.6970254778862 1.7893249988555908
H 5.723715782165527 -1.6468585729599 0.42116326093673706
H 9.143685340881348 3.5601117610931396 -0.11924172192811966
