17
Generated by QM7 dataset
C 1.7007157802581787 0.16510537266731262 0.06888052076101303
C 4.5527849197387695 -0.04915177822113037 0.030802536755800247
C 6.01690673828125 1.719405174255371 1.79979407787323
O 7.501948356628418 -0.37416577339172363 2.7705652713775635
C 5.726607322692871 -2.165607213973999 1.651261568069458
C 7.130295753479004 -4.257514953613281 0.2665458619594574
O 8.687033653259277 -5.5913405418396 2.0151095390319824
H 0.8394730687141418 -1.4042177200317383 -0.9696940779685974
H 1.0916948318481445 1.9283710718154907 -0.8263583183288574
H 0.9525542259216309 0.13889487087726593 1.999216914176941
H 5.283768653869629 0.0022865685168653727 -1.9082832336425781
H 4.931070327758789 2.619311571121216 3.313143491744995
H 7.200479984283447 3.125739336013794 0.85542231798172
H 4.472358226776123 -2.917680501937866 3.1236605644226074
H 8.349376678466797 -3.503835678100586 -1.2252228260040283
H 5.807090759277344 -5.597614288330078 -0.5849647521972656
H 9.58527660369873 -4.291019916534424 2.9711976051330566
