13
Generated by QM7 dataset
O 1.7634357213974 -0.034298527985811234 0.07300011813640594
C 4.4880805015563965 0.0005858151125721633 0.0784803256392479
C 5.702022075653076 2.073993444442749 1.753646969795227
S 8.230097770690918 0.004308575764298439 2.414200782775879
O 8.823490142822266 -0.07453079521656036 5.082153797149658
O 10.142934799194336 0.08386604487895966 0.460450679063797
C 5.779160499572754 -2.1192333698272705 1.6301155090332031
H 1.281272053718567 -1.3581839799880981 -1.1127841472625732
H 5.183122158050537 0.08277000486850739 -1.876460313796997
H 4.619851112365723 2.5827643871307373 3.441342353820801
H 6.271471977233887 3.7887120246887207 0.7532259225845337
H 6.4122185707092285 -3.7496135234832764 0.5318633913993835
H 4.718135833740234 -2.76546311378479 3.2837960720062256
