15
Generated by QM7 dataset
C 6.58384370803833 -2.2702035903930664 -0.3523772358894348
O 4.8343353271484375 -0.22820332646369934 -0.29132017493247986
C 5.810888767242432 2.148505210876465 -0.03405286371707916
C 8.237524032592773 2.8792245388031006 0.058902762830257416
C 9.04218864440918 5.563901901245117 0.37339097261428833
N 10.719339370727539 5.757409572601318 2.5469918251037598
H 5.508967399597168 -4.023736953735352 -0.5584896802902222
H 7.649384498596191 -2.3785037994384766 1.4180505275726318
H 7.860240459442139 -2.110275983810425 -1.9741969108581543
H 4.257401943206787 3.4828975200653076 0.09924841672182083
H 9.760322570800781 1.5160894393920898 -0.11181509494781494
H 7.423675537109375 6.827561855316162 0.6307716965675354
H 10.054798126220703 6.175719261169434 -1.3232618570327759
H 9.735301971435547 5.27280855178833 4.132396221160889
H 11.227222442626953 7.599968433380127 2.7837743759155273
