18
Generated by QM7 dataset
C 1.7783079147338867 0.1340949684381485 -0.3970881402492523
C 4.551915645599365 -0.11910943686962128 0.027703385800123215
C 6.226515293121338 -1.6923441886901855 -1.648030161857605
N 5.204740524291992 -3.0873022079467773 -3.805851697921753
C 6.388767242431641 1.161180019378662 -1.7406266927719116
C 8.597536087036133 2.4306414127349854 -0.647287905216217
C 10.961130142211914 2.3028769493103027 -1.543736219406128
H 1.047229528427124 1.7534202337265015 0.6655237674713135
H 0.7959904670715332 -1.5618774890899658 0.2679820656776428
H 1.2971458435058594 0.4233742356300354 -2.389275312423706
H 4.977859973907471 -0.15558114647865295 2.033515453338623
H 7.762768268585205 -2.681521415710449 -0.7004458904266357
H 3.9457292556762695 -2.0313611030578613 -4.807104110717773
H 4.244816303253174 -4.645513534545898 -3.205976963043213
H 5.626716136932373 2.103548526763916 -3.3957433700561523
H 8.256553649902344 3.5956196784973145 1.0116270780563354
H 11.405139923095703 1.1792080402374268 -3.202632188796997
H 12.493471145629883 3.315033197402954 -0.6317732334136963
