12
Generated by QM7 dataset
C 3.8835384845733643 -1.6044719219207764 -2.147050142288208
C 3.995069980621338 0.3854285478591919 -0.584945797920227
C 6.135751724243164 2.1047959327697754 -0.3092347979545593
C 6.485634803771973 4.2000298500061035 -2.205008029937744
N 5.551146030426025 4.722746849060059 0.33255401253700256
H 2.2067465782165527 -2.7819037437438965 -2.2248313426971436
H 5.451481819152832 -2.0858986377716064 -3.37673282623291
H 2.357433319091797 0.7703090906143188 0.6017076969146729
H 7.8034162521362305 1.3103171586990356 0.581619918346405
H 5.125315189361572 4.405764102935791 -3.7202093601226807
H 8.386018753051758 4.82182502746582 -2.6354875564575195
H 6.93950891494751 5.470643997192383 1.4417476654052734
