15
Generated by QM7 dataset
C 1.887250542640686 0.0649120956659317 0.3239746391773224
C 4.634307861328125 0.13846023380756378 -0.3163401484489441
C 5.976731300354004 2.2748334407806396 -0.5101504921913147
C 8.738395690917969 2.525203227996826 -1.1613311767578125
C 9.068342208862305 5.3335442543029785 -1.210898756980896
C 6.854357719421387 6.390335559844971 -0.6449635028839111
O 4.938969135284424 4.670174598693848 -0.19184499979019165
H 1.3405905961990356 -1.8596984148025513 0.8499988317489624
H 0.7449111342430115 0.6280882954597473 -1.3049125671386719
H 1.4498168230056763 1.2962576150894165 1.9277663230895996
H 5.562049865722656 -1.6626754999160767 -0.6388030052185059
H 9.161203384399414 1.700640082359314 -3.0089354515075684
H 9.937200546264648 1.676413893699646 0.2942870557308197
H 10.802241325378418 6.314519882202148 -1.6340839862823486
H 6.335968494415283 8.348960876464844 -0.49633657932281494
