12
Generated by QM7 dataset
C 1.9877840280532837 0.0868518128991127 0.011073795147240162
C 4.806915283203125 -0.07324578613042831 0.008144719526171684
C 6.126775741577148 -2.239816904067993 -0.0006803013966418803
C 8.728928565979004 -1.346732258796692 -0.00034015069832094014
O 10.671000480651855 -2.544421672821045 -0.006292787846177816
C 8.510930061340332 1.4717754125595093 0.009562014602124691
N 6.17420768737793 2.1596546173095703 0.014191843569278717
H 1.1169226169586182 -1.7896084785461426 0.000869274022988975
H 1.3245657682418823 1.107171654701233 -1.660370111465454
H 1.3272491693496704 1.0877453088760376 1.695689082145691
H 5.513276100158691 -4.170323371887207 -0.0067085279151797295
H 10.226101875305176 2.6357522010803223 0.011678507551550865
