15
Generated by QM7 dataset
C 1.7800086736679077 -0.02396172657608986 0.07719530910253525
C 4.644927978515625 0.006973089650273323 -0.07938739657402039
O 5.38409423828125 0.07953857630491257 -2.719296932220459
C 5.970438480377197 1.946625828742981 1.6731823682785034
N 7.82229471206665 -0.026210501790046692 2.3878767490386963
C 6.00768518447876 -1.9945114850997925 1.5745387077331543
H 1.1191335916519165 -0.07970865070819855 2.038372039794922
H 1.008962631225586 -1.6813838481903076 -0.8937837481498718
H 0.9776875972747803 1.6655668020248413 -0.8092563152313232
H 7.2206244468688965 0.096073679625988 -2.691669225692749
H 4.831784248352051 2.618612289428711 3.2678656578063965
H 6.801918029785156 3.587116003036499 0.7277335524559021
H 9.442961692810059 0.015193398110568523 1.3464865684509277
H 6.8686442375183105 -3.569692611694336 0.5478882789611816
H 4.881748199462891 -2.766634702682495 3.1327691078186035
