8
Generated by QM7 dataset
O 2.006227731704712 0.11361033469438553 -0.33349886536598206
S 4.675201416015625 -0.05576581880450249 0.16251644492149353
O 5.993020534515381 -1.2724848985671997 2.2073135375976562
C 5.835682392120361 -1.6512805223464966 -2.528604745864868
C 6.624038219451904 -2.74346661567688 -4.360373020172119
C 5.785358905792236 3.1085994243621826 0.1468317210674286
N 6.5377912521362305 5.178624629974365 0.09541226923465729
H 7.314487457275391 -3.7236485481262207 -5.976825714111328
