12
Generated by QM7 dataset
C 1.889726161956787 0.0 0.0
C 4.618490695953369 0.0 0.0
C 6.86756706237793 0.0 0.0
S 10.223626136779785 0.045995935797691345 0.08715417236089706
N 11.21826457977295 -1.3386253118515015 2.735907793045044
O 10.790544509887695 -1.5215697288513184 -2.0602362155914307
O 10.64346694946289 2.725022792816162 0.2640325427055359
H 1.1451362371444702 1.9291647672653198 0.022072000429034233
H 1.1451362371444702 -0.9836780428886414 1.6596708297729492
H 1.1451174020767212 -0.9454677700996399 -1.681723952293396
H 11.6943998336792 -0.0010204521240666509 4.0399699211120605
H 12.660730361938477 -2.5555522441864014 2.3455092906951904
