16
Generated by QM7 dataset
C 1.887760877609253 -0.11058676987886429 0.009184069000184536
C 4.762109756469727 0.0 0.0
O 5.666665077209473 -1.2756407260894775 -2.1923091411590576
C 5.672995567321777 2.5722384452819824 0.0
C 6.423746109008789 4.692322254180908 0.0
C 7.33463191986084 7.264560699462891 0.0
N 5.225451946258545 9.010025024414062 -0.2605554461479187
H 1.0996882915496826 0.8101444840431213 1.685314416885376
H 1.2421170473098755 -2.0761666297912598 -0.03178519383072853
H 1.0967214107513428 0.8100878000259399 -1.6690438985824585
H 5.486782073974609 -1.0228142738342285 1.6458759307861328
H 5.236960411071777 -0.21796101331710815 -3.6322615146636963
H 8.66983699798584 7.563591003417969 -1.55244779586792
H 8.336772918701172 7.675217151641846 1.762698769569397
H 4.346653461456299 8.677867889404297 -1.9405219554901123
H 5.9065470695495605 10.806001663208008 -0.350752055644989
