11
Generated by QM7 dataset
O 1.718611478805542 -0.04998325556516647 -0.062360960990190506
N 4.335674285888672 -0.018953952938318253 -0.019445281475782394
C 5.820054054260254 2.086824655532837 -0.005877048242837191
C 8.301888465881348 1.2855050563812256 0.022922378033399582
C 8.277435302734375 -1.395751714706421 0.026361679658293724
C 5.782372951507568 -2.1448581218719482 0.00173854804597795
H 1.3559162616729736 1.740229845046997 0.0674254298210144
H 5.025046348571777 3.9664406776428223 -0.020938165485858917
H 9.950069427490234 2.496384859085083 0.03671737760305405
H 9.899518966674805 -2.6415536403656006 0.04249994084239006
H 4.920223236083984 -3.995826005935669 -0.006538452580571175
