15
Generated by QM7 dataset
C 1.7081990242004395 -0.3373161256313324 -0.002853486454114318
C 4.482052326202393 0.2907910645008087 0.3222360908985138
C 6.617424011230469 -1.304988145828247 -1.0685456991195679
O 8.24504566192627 1.0002321004867554 -0.4341645836830139
C 5.861439228057861 2.2520432472229004 -1.4916741847991943
C 5.601053714752197 1.3029661178588867 -4.123269081115723
C 6.124451160430908 -1.1570793390274048 -3.8302102088928223
H 0.5356239676475525 1.2314966917037964 0.6626891493797302
H 1.2174561023712158 -2.0094592571258545 1.1124818325042725
H 1.1892991065979004 -0.719947874546051 -1.9661089181900024
H 4.874794006347656 0.6173924207687378 2.3380069732666016
H 7.308326721191406 -3.0543832778930664 -0.23164263367652893
H 5.751740455627441 4.270969867706299 -1.1031275987625122
H 5.148823261260986 2.3450746536254883 -5.810492038726807
H 6.209602355957031 -2.6419882774353027 -5.217118263244629
