16
Generated by QM7 dataset
N 1.8394972085952759 0.027552207931876183 -0.07320798933506012
C 4.586062908172607 -0.015325678512454033 0.02715536393225193
C 5.732900142669678 2.023972272872925 1.7198398113250732
O 8.239734649658203 1.1529597043991089 2.280672788619995
C 8.055562019348145 -1.5425078868865967 2.575923442840576
C 5.70353364944458 -2.3299567699432373 1.2051728963851929
C 4.765624523162842 -4.685689449310303 1.2117490768432617
H 1.2454050779342651 -1.2897002696990967 -1.34333074092865
H 1.252737283706665 1.7277954816818237 -0.757137656211853
H 5.363949775695801 0.182094007730484 -1.884926199913025
H 4.70430326461792 2.253385066986084 3.50580096244812
H 5.8350019454956055 3.8628458976745605 0.7780947089195251
H 9.755276679992676 -2.4008970260620117 1.773470163345337
H 7.935885906219482 -1.9668080806732178 4.597401142120361
H 3.015606164932251 -5.147897243499756 0.2497273087501526
H 5.724623203277588 -6.209432125091553 2.1953704357147217
