14
Generated by QM7 dataset
C 1.732784390449524 -1.0317527055740356 0.41262170672416687
C 4.409883975982666 0.02520894631743431 0.2892603874206543
C 4.5054850578308105 2.8353829383850098 -0.35970938205718994
O 3.2878966331481934 3.2773709297180176 -2.7141568660736084
C 3.362748861312866 4.427344799041748 1.7483935356140137
O 1.6035270690917969 5.901444435119629 1.3872857093811035
H 1.7878509759902954 -3.056480884552002 0.8396809101104736
H 0.74056476354599 -0.792966902256012 -1.3881171941757202
H 0.624006450176239 -0.1037648618221283 1.8930898904800415
H 5.439047336578369 -1.032433032989502 -1.1645437479019165
H 5.356750011444092 -0.32008180022239685 2.097104787826538
H 6.477527618408203 3.433122158050537 -0.5569778680801392
H 1.9495359659194946 4.513554096221924 -2.3875367641448975
H 4.247745513916016 4.227449417114258 3.623871088027954
