16
Generated by QM7 dataset
C 1.8323540687561035 -0.510944128036499 0.009221863932907581
N 4.5399346351623535 -0.23432603478431702 -0.06513886153697968
C 5.635635852813721 2.1275293827056885 -0.14371366798877716
O 4.421958923339844 4.098683834075928 -0.2672639787197113
C 8.491918563842773 2.0491244792938232 -0.011546226218342781
C 9.630309104919434 4.672045707702637 -0.29738619923591614
O 9.051769256591797 6.194427967071533 1.8434656858444214
H 1.3645334243774414 -2.5112192630767822 -0.19545437395572662
H 0.9764214754104614 0.5777837634086609 -1.5247255563735962
H 1.1357253789901733 0.19447171688079834 1.8224518299102783
H 5.6253180503845215 -1.7452943325042725 0.37751057744026184
H 9.185051918029785 0.8216907382011414 -1.5280325412750244
H 9.02208137512207 1.2354462146759033 1.8179165124893188
H 8.956168174743652 5.63533353805542 -2.0000860691070557
H 11.690129280090332 4.5308074951171875 -0.41519173979759216
H 7.229884147644043 6.510314464569092 1.7626609802246094
