14
Generated by QM7 dataset
C 1.5677356719970703 0.536568820476532 0.09713192284107208
C 4.375868797302246 0.0429912693798542 -0.27792203426361084
N 4.972058296203613 -0.6331149339675903 -2.873347520828247
C 4.429669380187988 -2.9560229778289795 -3.861201763153076
O 3.348632574081421 -4.662313461303711 -2.741690158843994
C 5.862497329711914 2.408512592315674 0.40961703658103943
O 7.2330780029296875 3.5524017810821533 -1.079581618309021
H 1.1761088371276855 1.1559076309204102 2.0326082706451416
H 0.4512665867805481 -1.166282296180725 -0.266621470451355
H 0.8919507265090942 2.0159976482391357 -1.1845180988311768
H 5.006470203399658 -1.4901435375213623 0.9624375104904175
H 6.004793643951416 0.6212096810340881 -3.899657726287842
H 5.086160182952881 -3.1415562629699707 -5.830334186553955
H 5.666286945343018 3.0480904579162598 2.3848721981048584
