15
Generated by QM7 dataset
C 1.9543737173080444 -0.020220069214701653 0.04934075102210045
C 4.8158159255981445 -0.0025511302519589663 0.22293099761009216
C 5.845149517059326 2.3076579570770264 1.5755780935287476
C 8.271652221679688 1.220158338546753 2.506664991378784
O 10.065645217895508 2.486463785171509 3.240407943725586
C 8.19404125213623 -1.6203267574310303 2.4791316986083984
O 5.643289089202881 -2.138792037963867 1.6816105842590332
H 1.30400550365448 -1.7336914539337158 -0.912397563457489
H 1.2559497356414795 1.625901460647583 -0.9879488348960876
H 1.0936601161956787 -0.038059085607528687 1.9320181608200073
H 5.63533353805542 -0.17066116631031036 -1.6755256652832031
H 4.700315952301025 2.8481762409210205 3.209416389465332
H 6.132274627685547 3.9037017822265625 0.30158138275146484
H 9.518664360046387 -2.380185604095459 1.090712070465088
H 8.488177299499512 -2.408928394317627 4.361261367797852
