17
Generated by QM7 dataset
C 1.9015557765960693 0.2504831850528717 0.8914594054222107
C 4.572702407836914 0.21319890022277832 -0.17173831164836884
C 6.428470134735107 1.9974783658981323 1.1790379285812378
C 7.39223051071167 -0.3505820035934448 2.569025993347168
N 6.161773204803467 -1.8303320407867432 0.6708149909973145
C 5.196142196655273 -4.14796781539917 1.2355217933654785
N 6.077869415283203 -5.796942710876465 2.7951128482818604
H 0.7239729762077332 -1.2022815942764282 0.004988877102732658
H 1.0082255601882935 2.0771679878234863 0.5024403929710388
H 1.8620415925979614 -0.041101545095443726 2.941075325012207
H 4.599461078643799 0.3854096531867981 -2.235167980194092
H 5.601903915405273 3.4621105194091797 2.3804314136505127
H 7.827226638793945 2.865675210952759 -0.07768664509057999
H 9.440750122070312 -0.6031249761581421 2.595614433288574
H 6.6014556884765625 -0.6067155003547668 4.4642510414123535
H 3.499602794647217 -4.637369155883789 0.12766990065574646
H 7.6978373527526855 -5.106606960296631 3.5917646884918213
