16
Generated by QM7 dataset
C 1.840120792388916 0.06806793808937073 -0.16315895318984985
C 4.670873641967773 -0.15786771476268768 0.01702643185853958
C 5.649034023284912 -2.813594341278076 -0.2587223947048187
C 6.103097438812256 1.9093226194381714 0.41025954484939575
C 8.906449317932129 1.961592435836792 0.48603755235671997
N 9.851822853088379 3.9766829013824463 1.774622917175293
O 10.285099029541016 0.40587538480758667 -0.5123803615570068
H 1.1948360204696655 2.027808427810669 0.0032503290567547083
H 0.9334301948547363 -1.0209623575210571 1.3451448678970337
H 1.1797560453414917 -0.6555649042129517 -1.9863477945327759
H 4.454972743988037 -4.127180576324463 0.8086894154548645
H 7.563439846038818 -3.0634350776672363 0.4706363081932068
H 5.61583137512207 -3.3833844661712646 -2.2471110820770264
H 5.203341960906982 3.739616870880127 0.620869517326355
H 8.77503776550293 5.241722583770752 2.708752393722534
H 11.753000259399414 4.095811367034912 1.9273316860198975
