15
Generated by QM7 dataset
C 1.7904777526855469 -0.021883029490709305 -0.42550963163375854
C 3.793795347213745 0.5914843082427979 0.993844747543335
C 5.542566776275635 2.599658489227295 0.16642817854881287
C 4.6398444175720215 5.346677780151367 0.5568645000457764
C 7.34602689743042 5.814573764801025 1.5032204389572144
N 7.48601770401001 3.091610908508301 2.1240522861480713
H 0.49730032682418823 -1.4956426620483398 0.18005309998989105
H 1.3846023082733154 0.9240193963050842 -2.200718402862549
H 4.141618251800537 -0.38678914308547974 2.766143321990967
H 6.3596086502075195 2.2451837062835693 -1.7083123922348022
H 3.186380624771118 5.614055156707764 2.0108954906463623
H 4.09271240234375 6.376559734344482 -1.1483298540115356
H 8.673578262329102 6.403658390045166 0.02547350898385048
H 7.522640705108643 7.0865864753723145 3.121222972869873
H 9.190342903137207 2.272376775741577 1.771769404411316
