18
Generated by QM7 dataset
C 1.5353080034255981 -0.6146145462989807 0.012604473158717155
N 4.262692928314209 -0.3239368498325348 0.22725845873355865
C 5.011194705963135 2.340747117996216 -0.018443727865815163
C 7.8995466232299805 2.615154266357422 -0.018198063597083092
O 8.88878059387207 1.4733060598373413 -2.2644588947296143
C 11.446449279785156 1.5302435159683228 -2.589794158935547
C 13.22434139251709 2.536484956741333 -1.0980442762374878
H 1.0415982007980347 -2.6150786876678467 0.17670829594135284
H 0.8368462920188904 0.06532783061265945 -1.811699390411377
H 0.559680163860321 0.39499056339263916 1.5309048891067505
H 5.137088298797607 -1.3223170042037964 -1.1781119108200073
H 4.231229305267334 3.4275286197662354 1.561764121055603
H 4.265659809112549 3.113607168197632 -1.7900997400283813
H 8.698485374450684 1.70553457736969 1.6660014390945435
H 8.373357772827148 4.6334004402160645 -0.003420404391363263
H 11.92405891418457 0.5844544768333435 -4.345652103424072
H 12.800268173217773 3.486544609069824 0.6631426811218262
H 15.199199676513672 2.4136338233947754 -1.6373343467712402
