22
Generated by QM7 dataset
C 1.8224329948425293 -0.19037100672721863 -0.0016440617619082332
C 4.7151689529418945 0.024660926312208176 -0.07689295709133148
C 5.694746494293213 -1.5433582067489624 -2.318864107131958
C 5.7021918296813965 2.8133108615875244 -0.06527113914489746
C 4.9270453453063965 4.307895183563232 -2.432096481323242
C 4.784162998199463 4.244665145874023 2.296886444091797
N 8.48505973815918 2.777916431427002 0.01946417987346649
H 1.0345683097839355 0.7059828042984009 1.6852010488510132
H 1.2470492124557495 -2.1791188716888428 0.052742257714271545
H 0.9445796012878418 0.662972629070282 -1.667569875717163
H 5.419942378997803 -0.8998686671257019 1.646329402923584
H 4.9546918869018555 -0.8484681248664856 -4.12066125869751
H 5.103394508361816 -3.518953561782837 -2.1282851696014404
H 7.759914875030518 -1.5355347394943237 -2.416487216949463
H 5.656177043914795 3.4486935138702393 -4.168017864227295
H 5.653777122497559 6.248549461364746 -2.3640851974487305
H 2.8697001934051514 4.442765235900879 -2.604930877685547
H 5.23051643371582 3.204843282699585 4.031863212585449
H 2.7399327754974365 4.562460422515869 2.2493221759796143
H 5.671653747558594 6.112508296966553 2.4424521923065186
H 9.078149795532227 1.90200936794281 1.6294163465499878
H 9.167193412780762 4.5774078369140625 0.10489869862794876
