18
Generated by QM7 dataset
C 1.9335867166519165 0.12801004946231842 -0.21973735094070435
C 4.739187717437744 0.021127138286828995 -0.04100705683231354
C 6.375576972961426 -1.3315387964248657 -1.9446038007736206
N 5.278798580169678 -2.6411190032958984 -4.115180969238281
C 6.46195650100708 1.534873366355896 -1.7527209520339966
C 5.483456134796143 3.2058448791503906 -3.810009241104126
O 8.611916542053223 2.609617233276367 -0.4757196605205536
H 1.2172859907150269 1.6746186017990112 0.953253448009491
H 1.1197383403778076 -1.6356335878372192 0.49297285079956055
H 1.2309298515319824 0.41615548729896545 -2.139415740966797
H 5.3062944412231445 -0.13785551488399506 1.925479769706726
H 7.993579387664795 -2.3354368209838867 -1.1668113470077515
H 3.7655627727508545 -1.7057801485061646 -4.846599578857422
H 4.61051607131958 -4.3794026374816895 -3.589402437210083
H 3.8461973667144775 2.429035186767578 -4.805063247680664
H 6.967212200164795 3.5297815799713135 -5.218762397766113
H 4.9312591552734375 5.042223930358887 -3.0321412086486816
H 9.928243637084961 1.3644200563430786 -0.18167826533317566
