17
Generated by QM7 dataset
C 1.749886393547058 0.01092261727899313 0.5757617354393005
C 4.604733467102051 0.04197081923484802 0.1375153660774231
C 5.35304594039917 2.3372321128845215 -1.4460750818252563
N 7.973793983459473 2.017944097518921 -2.2364718914031982
N 8.550406455993652 0.015835905447602272 -3.7210030555725098
C 7.393893718719482 -2.0737476348876953 -3.170053482055664
C 5.497175693511963 -2.4314727783203125 -1.07429039478302
H 1.1254452466964722 1.7537225484848022 1.5004802942276
H 1.207157015800476 -1.5825700759887695 1.7783645391464233
H 0.7216675281524658 -0.16223299503326416 -1.2145458459854126
H 5.52485990524292 0.20422270894050598 1.9921303987503052
H 5.1772637367248535 4.059433937072754 -0.3110489249229431
H 4.132812023162842 2.5567805767059326 -3.1046876907348633
H 8.631702423095703 3.642749547958374 -3.048600673675537
H 7.846293926239014 -3.7635786533355713 -4.3026041984558105
H 3.9150967597961426 -3.5037224292755127 -1.8727375268936157
H 6.3732147216796875 -3.653048515319824 0.3534732758998871
