16
Generated by QM7 dataset
N 1.9982908964157104 -0.025227844715118408 -0.05618155747652054
C 4.7616753578186035 0.021070446819067 0.07307571172714233
C 5.949311256408691 1.969926118850708 -1.8112457990646362
C 5.123104095458984 0.09828465431928635 -3.9597511291503906
C 6.088149547576904 -1.7979421615600586 -1.8846049308776855
O 8.783201217651367 -1.313246250152588 -1.633063554763794
C 8.806822776794434 1.4166332483291626 -1.5666018724441528
H 1.1615201234817505 1.4027436971664429 0.9302554726600647
H 1.2274715900421143 -1.654304027557373 0.6290898323059082
H 5.519058704376221 0.0020031097810715437 1.997157096862793
H 5.2900614738464355 3.9180259704589844 -1.8467915058135986
H 6.237419128417969 0.1686202585697174 -5.702022075653076
H 3.1240384578704834 0.03339146077632904 -4.483621120452881
H 5.571763038635254 -3.7875401973724365 -1.982643961906433
H 9.898385047912598 2.1472580432891846 -3.162777900695801
H 9.593421936035156 2.0696280002593994 0.2301875352859497
