14
Generated by QM7 dataset
C 5.733769416809082 -2.1642465591430664 0.9651020169258118
O 4.371522426605225 0.11425284296274185 0.5613431334495544
C 5.847303867340088 2.1857516765594482 0.34449708461761475
C 4.802115440368652 4.529862403869629 -0.050720248371362686
N 6.733245372772217 6.248152732849121 -0.1915237456560135
C 8.997930526733398 5.024025917053223 0.10971749573945999
C 8.503427505493164 2.4873709678649902 0.4476572275161743
H 4.3631510734558105 -3.7056963443756104 1.1114046573638916
H 6.798705577850342 -2.094477891921997 2.7387423515319824
H 6.9851460456848145 -2.580080986022949 -0.6304882168769836
H 2.854469060897827 5.115262031555176 -0.24250856041908264
H 6.519460678100586 8.127277374267578 -0.4738866090774536
H 10.75991153717041 6.058027267456055 0.058071285486221313
H 9.920608520507812 1.0435634851455688 0.733742892742157
