15
Generated by QM7 dataset
C 3.288180112838745 -1.806256890296936 0.8392084836959839
C 6.029114723205566 -0.9626265168190002 0.6490264534950256
N 6.1484694480896 1.6124844551086426 -0.35216936469078064
C 8.780688285827637 2.4730467796325684 -0.5161219835281372
C 8.81778335571289 5.104377269744873 -1.6367295980453491
O 9.707032203674316 6.950715065002441 -0.546149730682373
H 3.1864941120147705 -3.733928680419922 1.5835905075073242
H 2.3701701164245605 -1.790364384651184 -1.0158789157867432
H 2.209562301635742 -0.5767822265625 2.1078004837036133
H 7.047903537750244 -2.2642886638641357 -0.5985329747200012
H 6.898634433746338 -1.0536357164382935 2.5269041061401367
H 5.182724952697754 2.7902750968933105 0.8372809290885925
H 9.88988208770752 1.251773476600647 -1.7652498483657837
H 9.669955253601074 2.5283212661743164 1.35191011428833
H 8.0250244140625 5.2753214836120605 -3.5585811138153076
