15
Generated by QM7 dataset
N 1.3041378259658813 2.7895002365112305 0.18500418961048126
N 3.6020069122314453 1.7343528270721436 0.5559763312339783
C 5.450537204742432 3.2871596813201904 0.1442427933216095
C 8.1019926071167 2.4779412746429443 0.45990264415740967
C 9.990094184875488 4.109076976776123 0.025870351120829582
C 12.71700668334961 3.45273756980896 0.3025640547275543
O 13.915338516235352 3.847444534301758 -2.059971570968628
H -0.04435187205672264 1.4039909839630127 0.2402597814798355
H 0.8503578901290894 3.9721665382385254 1.6464805603027344
H 5.141170024871826 5.263510704040527 -0.46069633960723877
H 8.405464172363281 0.5375704169273376 1.0429965257644653
H 9.594895362854004 6.040358543395996 -0.5531039237976074
H 13.015829086303711 1.4896900653839111 0.8820674419403076
H 13.607218742370605 4.687333583831787 1.7012070417404175
H 13.087827682495117 2.741293430328369 -3.2727034091949463
