17
Generated by QM7 dataset
C -3.3786981105804443 1.7887202501296997 0.6817187070846558
C -2.6688034534454346 -0.8070831298828125 -0.2251041829586029
C -0.6787329316139221 -2.5014116764068604 0.7605958580970764
C 1.4048223495483398 -1.285467267036438 -0.6694732904434204
C 3.812673568725586 -0.21960507333278656 0.19441501796245575
C 1.5747466087341309 1.551521897315979 0.06387273967266083
C -1.1489912271499634 1.4825468063354492 -1.0857988595962524
H -5.085290908813477 2.6293082237243652 -0.08161727339029312
H -3.0430259704589844 2.244673490524292 2.648526668548584
H -3.870253562927246 -1.715039849281311 -1.6134103536605835
H -0.4588632881641388 -2.3653323650360107 2.810873031616211
H -0.9598674774169922 -4.4717535972595215 0.20768089592456818
H 1.4322234392166138 -1.8911434412002563 -2.6407411098480225
H 4.514725685119629 -0.7833292484283447 2.033912181854248
H 5.298678874969482 0.0632113367319107 -1.1892613172531128
H 1.4452247619628906 2.358963966369629 1.9620648622512817
H -1.3837708234786987 2.139453411102295 -3.017552375793457
