19
Generated by QM7 dataset
C 2.251589775085449 -0.24080780148506165 -0.22020979225635529
C 5.026425838470459 0.23557326197624207 -0.26692381501197815
N 6.553079128265381 -0.6862540245056152 -2.360834836959839
C 6.282148838043213 2.0907363891601562 -2.07928466796875
C 4.7196478843688965 3.481877088546753 -4.0161027908325195
C 8.584742546081543 3.523866891860962 -1.1420749425888062
N 10.583959579467773 3.3179433345794678 -3.033860921859741
H 1.2817634344100952 1.3156273365020752 0.7357081770896912
H 1.852574110031128 -1.979166865348816 0.829797625541687
H 1.4328659772872925 -0.4530240595340729 -2.107025623321533
H 5.8471903800964355 0.013965075835585594 1.6012027263641357
H 5.467846870422363 -1.3145313262939453 -3.825126886367798
H 3.2652766704559326 2.292029857635498 -4.8801045417785645
H 5.913860321044922 4.191280364990234 -5.550314426422119
H 3.778658628463745 5.099633693695068 -3.1339595317840576
H 9.266366958618164 2.7448461055755615 0.6518610119819641
H 8.118886947631836 5.514428615570068 -0.8184592723846436
H 10.780263900756836 1.435171365737915 -3.428492307662964
H 12.249204635620117 3.8693087100982666 -2.2464308738708496
