15
Generated by QM7 dataset
C 3.4443471431732178 -0.8680456876754761 -2.4398443698883057
O 3.9351468086242676 0.30222389101982117 -0.07184738665819168
C 5.709259510040283 2.3754234313964844 -0.11413946002721786
C 4.676467418670654 4.945564270019531 -1.094699501991272
C 6.007401466369629 6.155650615692139 1.1876928806304932
O 6.674229145050049 8.288679122924805 1.6954056024551392
C 6.271188259124756 3.5800483226776123 2.5079121589660645
H 2.091076374053955 -2.400178909301758 -2.147881507873535
H 5.190227508544922 -1.653944969177246 -3.2183737754821777
H 2.6346750259399414 0.5013443231582642 -3.7587029933929443
H 7.465382099151611 1.8131732940673828 -1.0706243515014648
H 2.620917797088623 5.151979446411133 -1.043468952178955
H 5.409303188323975 5.543247222900391 -2.9287919998168945
H 8.151503562927246 3.19649076461792 3.2656924724578857
H 4.835204601287842 3.25439190864563 3.9574644565582275
