11
Generated by QM7 dataset
C 1.8726807832717896 -0.06774668395519257 -0.012415500357747078
C 4.642943859100342 0.1662203073501587 -0.0001511780865257606
C 6.321587562561035 2.150432825088501 0.002456644084304571
N 8.753116607666016 1.2529828548431396 0.015741419047117233
C 8.459264755249023 -1.2123916149139404 0.020465733483433723
O 6.016944885253906 -2.023216485977173 0.01126276794821024
H 0.9714515209197998 1.7927453517913818 0.004176294896751642
H 1.2258464097976685 -1.1111400127410889 1.6510915756225586
H 1.238318681716919 -1.075613260269165 -1.7023975849151611
H 5.914427280426025 4.152522087097168 -0.004440856631845236
H 9.900691032409668 -2.658032178878784 0.030481282621622086
