11
Generated by QM7 dataset
O 3.3299620151519775 -0.4908563494682312 2.7598884105682373
C 4.482449054718018 -0.10506877303123474 0.37641453742980957
C 5.505490303039551 2.51719069480896 0.3566669225692749
C 7.949586391448975 3.092461347579956 0.0
C 8.836491584777832 5.597009658813477 0.0
N 9.562561988830566 7.647343635559082 0.0
H 2.618669033050537 -2.1843721866607666 2.7452428340911865
H 3.05619740486145 -0.3227841258049011 -1.1045070886611938
H 5.958250045776367 -1.5287128686904907 0.10756321251392365
H 4.130941390991211 4.015498161315918 0.6737251877784729
H 9.340576171875 1.6170953512191772 -0.29475948214530945
