19
Generated by QM7 dataset
C 4.177995681762695 -1.2283408641815186 2.081212043762207
C 4.8472418785095215 0.3632242679595947 -0.22158928215503693
C 4.488382816314697 3.1751368045806885 0.21359574794769287
C 1.7934446334838867 3.990648031234741 0.6332094073295593
C 6.503360271453857 4.7310614585876465 0.13891376554965973
C 6.505401134490967 7.435486316680908 0.5077505111694336
C 8.603318214416504 8.83872127532959 0.34130343794822693
H 4.605905055999756 -3.219677686691284 1.7168917655944824
H 2.162527084350586 -1.0970804691314697 2.53419828414917
H 5.256858825683594 -0.6344377398490906 3.7443978786468506
H 3.683964490890503 -0.22892142832279205 -1.8322973251342773
H 6.807435989379883 -0.05338476225733757 -0.7483126521110535
H 0.5573369264602661 3.120863914489746 -0.7814773321151733
H 1.5130281448364258 6.029511451721191 0.48295730352401733
H 1.1495771408081055 3.403170108795166 2.5094995498657227
H 8.359052658081055 3.9051756858825684 -0.2193027138710022
H 4.739867687225342 8.382749557495117 0.9480378031730652
H 10.436787605285645 8.024042129516602 -0.08849587291479111
H 8.52364730834961 10.868646621704102 0.6343810558319092
