19
Generated by QM7 dataset
C 5.7067461013793945 -0.11508432030677795 3.0722789764404297
N 5.736849308013916 0.9517983794212341 0.5269123315811157
C 6.753446578979492 3.5474884510040283 0.49616649746894836
C 9.634560585021973 3.6789188385009766 0.9638926386833191
N 11.029348373413086 1.8216960430145264 -0.6133295297622681
C 10.667315483093262 6.346059322357178 0.4661387503147125
O 13.345340728759766 6.346059322357178 0.7994675636291504
H 4.7991485595703125 -1.9724394083023071 3.0195555686950684
H 4.636348724365234 1.0744227170944214 4.382652759552002
H 7.617315769195557 -0.3927795886993408 3.808988571166992
H 3.9200668334960938 1.0032178163528442 -0.12355029582977295
H 5.743954658508301 4.744138717651367 1.8541803359985352
H 6.352503299713135 4.324846267700195 -1.384092092514038
H 10.045859336853027 3.189404249191284 2.934650182723999
H 10.663384437561035 2.212207794189453 -2.4693806171417236
H 10.110601425170898 0.13118478655815125 -0.3447049558162689
H 9.849498748779297 7.7186431884765625 1.7787991762161255
H 10.267732620239258 6.966607570648193 -1.4677313566207886
H 13.877090454101562 4.6557936668396 0.25352564454078674
