15
Generated by QM7 dataset
C 1.9847604036331177 -0.12494869530200958 -0.5646312832832336
C 4.482864856719971 0.2798306345939636 0.6639363765716553
C 6.597884178161621 1.751776099205017 -0.5102827548980713
C 6.736306667327881 2.3006093502044678 -3.2958335876464844
N 6.960277080535889 -0.21794211864471436 -4.517295837402344
C 6.997391223907471 -1.8038381338119507 -2.6441047191619873
N 6.77298641204834 -1.0274251699447632 -0.17687836289405823
H 0.7082693576812744 1.4274234771728516 -0.0750410258769989
H 1.1371616125106812 -1.8822805881500244 0.12419280409812927
H 2.0745792388916016 -0.23311661183834076 -2.6263413429260254
H 4.318515777587891 0.32941704988479614 2.7055020332336426
H 7.928572654724121 2.7810909748077393 0.6444721817970276
H 8.404122352600098 3.43837571144104 -3.747497081756592
H 5.041014671325684 3.2773141860961914 -3.966365098953247
H 7.267660140991211 -3.8519043922424316 -2.8833253383636475
