14
Generated by QM7 dataset
C 1.6962748765945435 0.4266623556613922 -0.46831193566322327
C 4.38580846786499 0.4332764148712158 0.3465190827846527
O 5.833395481109619 -1.65107262134552 -0.5877993106842041
C 6.5003557205200195 0.8144152760505676 -1.5275033712387085
C 8.998913764953613 1.6939693689346313 -0.6805092692375183
N 10.337199211120605 3.028550624847412 -2.2275147438049316
O 12.626602172851562 3.6478705406188965 -1.0588324069976807
H 0.8783258199691772 2.309434413909912 -0.22952613234519958
H 0.6084729433059692 -0.9003599882125854 0.6843265295028687
H 1.48549485206604 -0.12128262221813202 -2.4515039920806885
H 4.640146732330322 0.985057532787323 2.296489715576172
H 6.00706148147583 1.2358242273330688 -3.4718616008758545
H 9.644538879394531 1.1859543323516846 1.2373926639556885
H 13.52883243560791 4.536798000335693 -2.3978168964385986
