20
Generated by QM7 dataset
C 5.4289751052856445 -1.482811450958252 2.0545291900634766
N 4.865251064300537 0.09898385405540466 -0.13095802068710327
C 5.763381481170654 2.7554473876953125 0.03974094241857529
C 4.841894149780273 4.056864261627197 -2.4027867317199707
C 4.642301082611084 4.174575328826904 2.312892436981201
C 8.692910194396973 2.871797800064087 0.12598803639411926
O 9.75023078918457 1.3294789791107178 -1.82024085521698
H 4.716681003570557 -3.391378164291382 1.6963694095611572
H 4.508546352386475 -0.7998265624046326 3.773310661315918
H 7.460808753967285 -1.6564205884933472 2.3853635787963867
H 2.952394723892212 0.10425619035959244 -0.3998849391937256
H 5.552619934082031 3.1039695739746094 -4.097795486450195
H 5.485157012939453 6.025505065917969 -2.481588363647461
H 2.7728519439697266 4.07695198059082 -2.515641212463379
H 5.345109462738037 3.4290213584899902 4.111590385437012
H 2.5760746002197266 4.049739837646484 2.333225965499878
H 5.145421981811523 6.181426525115967 2.247999429702759
H 9.428637504577637 2.195805072784424 1.937158226966858
H 9.37757682800293 4.804704189300537 -0.14626480638980865
H 8.538935661315918 -0.05640832334756851 -2.0215911865234375
