13
Generated by QM7 dataset
C 2.8198304176330566 -1.7397196292877197 -0.774239718914032
C 5.249035358428955 -1.044564962387085 -0.6572089791297913
C 5.974765777587891 1.599747657775879 0.026966391131281853
O 4.3521528244018555 3.216691732406616 0.4318024218082428
C 8.76955795288086 2.232598066329956 0.06100035831332207
C 10.218108177185059 0.6310362219810486 1.8091859817504883
C 11.415325164794922 -0.6650702357292175 3.2398221492767334
H 2.295450448989868 -3.6576027870178223 -1.2725037336349487
H 1.301567792892456 -0.4150216579437256 -0.37305083870887756
H 6.755241870880127 -2.37221097946167 -1.0579065084457397
H 8.972552299499512 4.218662261962891 0.6130271553993225
H 9.494097709655762 2.0616912841796875 -1.8709800243377686
H 12.477993965148926 -1.8014380931854248 4.518561840057373
