15
Generated by QM7 dataset
C 2.351820945739746 -0.5562976002693176 -0.24693050980567932
C 5.206838130950928 -0.3324972987174988 -0.00247554131783545
N 5.957644939422607 2.315802574157715 -0.19503863155841827
C 8.691473960876465 2.594763994216919 0.04943523555994034
C 9.366937637329102 5.2832207679748535 -0.07702523469924927
C 9.924066543579102 7.481501579284668 -0.1805444359779358
H 1.7804433107376099 -2.5408880710601807 -0.12445736676454544
H 1.6955945491790771 0.18404042720794678 -2.0650172233581543
H 1.3850369453430176 0.47847867012023926 1.262582778930664
H 6.097295761108398 -1.4416909217834473 -1.507831335067749
H 5.79435396194458 -1.1275618076324463 1.817784309387207
H 5.103148937225342 3.3416216373443604 1.1928329467773438
H 9.652626991271973 1.5758237838745117 -1.4762163162231445
H 9.344809532165527 1.8094884157180786 1.8516860008239746
H 10.408782005310059 9.433399200439453 -0.2850273847579956
