18
Generated by QM7 dataset
N 4.584569931030273 -0.803284764289856 3.5351674556732178
C 4.429140090942383 -0.5533496141433716 0.7851056456565857
C 6.324006080627441 1.3924635648727417 -0.2125752866268158
C 9.105985641479492 0.827813446521759 0.38248056173324585
O 9.544061660766602 0.8374888300895691 3.0582194328308105
C 10.041966438293457 -1.699714183807373 -0.6717220544815063
O 12.674053192138672 -1.9648805856704712 -0.13558785617351532
H 3.3152031898498535 -2.144385576248169 4.109776496887207
H 3.964513063430786 0.8418163061141968 4.345973491668701
H 2.509953260421753 0.024736514315009117 0.2659222483634949
H 4.7620720863342285 -2.3997254371643066 -0.08615261316299438
H 5.842164039611816 3.2428267002105713 0.592296838760376
H 6.090303897857666 1.5474966764450073 -2.2653658390045166
H 10.28268051147461 2.349836587905884 -0.3862222135066986
H 8.0949068069458 -0.05542566627264023 3.808213949203491
H 9.78099536895752 -1.808732509613037 -2.7198638916015625
H 9.087976455688477 -3.3020129203796387 0.22109796106815338
H 12.877028465270996 -1.3326537609100342 1.5905824899673462
