17
Generated by QM7 dataset
C 2.245769500732422 -1.6804578304290771 0.2899217903614044
C 4.788868427276611 -0.49618539214134216 -0.3839167654514313
C 6.058631896972656 -1.9326796531677246 -2.5340850353240967
C 4.458261013031006 2.2672934532165527 -1.1333065032958984
O 2.533895969390869 3.061129570007324 -2.1643033027648926
C 6.637474060058594 3.9839396476745605 -0.6067343950271606
C 6.53374719619751 6.439260482788086 -1.2053806781768799
H 1.3130384683609009 -0.6079815626144409 1.795296549797058
H 2.4945895671844482 -3.6259686946868896 0.9494361877441406
H 0.9667271971702576 -1.7153233289718628 -1.337680459022522
H 5.989279270172119 -0.5792010426521301 1.303646445274353
H 4.929086208343506 -1.8432577848434448 -4.267096042633057
H 6.3224945068359375 -3.923506021499634 -2.0371625423431396
H 7.917574405670166 -1.1317758560180664 -2.964961290359497
H 8.29765510559082 3.172264337539673 0.27274417877197266
H 4.870636940002441 7.259345054626465 -2.089980363845825
H 8.114767074584961 7.686045169830322 -0.8231835961341858
