16
Generated by QM7 dataset
C 1.693818211555481 0.10306566208600998 0.004648726433515549
C 4.5769734382629395 0.09522330015897751 -0.2058667689561844
C 5.391369819641113 -1.3136998414993286 -2.548541307449341
C 6.869966983795166 -3.3704020977020264 -2.536144733428955
C 5.568796157836914 2.769639253616333 -0.26783087849617004
C 7.180637836456299 3.733531951904297 1.4317320585250854
H 1.08224618434906 1.093565583229065 1.7167216539382935
H 0.9574486613273621 -1.829538345336914 0.10110034793615341
H 0.8062705397605896 1.0370439291000366 -1.6169441938400269
H 5.321563243865967 -0.8743762969970703 1.4725313186645508
H 4.719987869262695 -0.5947157144546509 -4.354798316955566
H 7.598532199859619 -4.163595676422119 -0.7911527156829834
H 7.391266822814941 -4.2965569496154785 -4.29030179977417
H 4.917237281799316 3.975019931793213 -1.800531029701233
H 7.897033214569092 2.6146061420440674 2.9948947429656982
H 7.827245712280273 5.674771785736084 1.2801382541656494
