16
Generated by QM7 dataset
C 4.13360595703125 -0.4690867066383362 2.7740612030029297
C 4.56964111328125 0.2986334264278412 0.04231096804141998
N 5.681593894958496 2.8257641792297363 -0.1028577908873558
C 3.94181752204895 4.95026969909668 0.021202728152275085
C 8.247199058532715 3.137134313583374 0.05185408517718315
N 9.521441459655762 5.204248905181885 0.08558569848537445
H 3.305830240249634 -2.363234758377075 2.8643524646759033
H 2.8440001010894775 0.8420430421829224 3.724858045578003
H 5.909721851348877 -0.4915744662284851 3.8378825187683105
H 2.7784454822540283 0.24092118442058563 -0.9970951080322266
H 5.8119659423828125 -1.081263542175293 -0.8782313466072083
H 1.9662411212921143 4.347919464111328 -0.11495204269886017
H 4.297199249267578 6.261494159698486 -1.5387850999832153
H 4.169945240020752 5.964127063751221 1.8099230527877808
H 9.291424751281738 1.3343355655670166 0.15554335713386536
H 8.328929901123047 6.712155818939209 -0.039665352553129196
