15
Generated by QM7 dataset
C 1.231156587600708 0.6281827688217163 0.10828130692243576
C 4.016801834106445 0.18315225839614868 0.1846640408039093
C 5.749661922454834 1.964011311531067 -0.31768184900283813
C 8.501197814941406 1.3729426860809326 -0.20025427639484406
O 9.294201850891113 -0.7280358672142029 0.40685802698135376
C 10.312273025512695 3.5112245082855225 -0.8704267740249634
O 12.87899398803711 2.7387044429779053 -0.7060394883155823
H 0.3607676029205322 -0.5989298224449158 -1.3095424175262451
H 0.7666996717453003 2.588320016860962 -0.35891568660736084
H 0.39848655462265015 0.18961511552333832 1.9490067958831787
H 4.619227886199951 -1.7214648723602295 0.6854603886604309
H 5.223637580871582 3.876338481903076 -0.826396107673645
H 10.027491569519043 5.083344459533691 0.4400983154773712
H 9.949597358703613 4.131640434265137 -2.807906150817871
H 12.84977912902832 0.9749664068222046 -0.14239086210727692
