15
Generated by QM7 dataset
C 1.957208275794983 -0.05066355690360069 0.09057457000017166
C 4.822127342224121 0.05457529053092003 0.0801810771226883
C 5.87394905090332 2.2301981449127197 1.6038672924041748
C 8.462458610534668 1.2636598348617554 2.310114622116089
C 8.010397911071777 -1.5278624296188354 2.4957234859466553
O 9.405563354492188 -3.0444998741149902 3.527249336242676
O 5.828728199005127 -2.156498670578003 1.2644157409667969
H 1.2964277267456055 -1.6945741176605225 -0.9795206189155579
H 1.1421315670013428 1.6551355123519897 -0.7462906241416931
H 1.2238433361053467 -0.2671883702278137 2.0145046710968018
H 5.513521671295166 0.10317904502153397 -1.8731343746185303
H 4.760843753814697 2.5351054668426514 3.3266360759735107
H 5.924631595611572 4.008600234985352 0.5523669719696045
H 9.851898193359375 1.6261093616485596 0.82342928647995
H 9.09825611114502 2.040337324142456 4.113631248474121
