14
Generated by QM7 dataset
C 4.733782768249512 0.5078827738761902 1.8393648862838745
C 4.074117183685303 -0.022582227364182472 -0.9894039034843445
C 4.6545090675354 2.648167610168457 -1.4268754720687866
C 4.889382839202881 4.777738094329834 -2.801783561706543
N 5.736679553985596 6.581934928894043 -1.074630618095398
C 5.977921962738037 5.526352882385254 1.3302538394927979
C 5.272732734680176 3.0991697311401367 1.028332233428955
H 6.353107929229736 -0.46065855026245117 2.6892504692077637
H 3.212817907333374 0.3872237801551819 3.240426778793335
H 2.136864423751831 -0.5511197447776794 -1.4907293319702148
H 5.296524524688721 -1.3152682781219482 -2.0504095554351807
H 4.572683811187744 5.255215167999268 -4.762147426605225
H 6.110032558441162 8.40612506866455 -1.5037118196487427
H 6.599868297576904 6.646903991699219 2.9208173751831055
