20
Generated by QM7 dataset
C 6.710625171661377 -4.74455451965332 -2.1772100925445557
N 7.858331680297852 -2.415410041809082 -3.075831651687622
C 7.831308364868164 -0.45158785581588745 -1.1111022233963013
C 8.80155086517334 2.121236562728882 -2.108537435531616
C 11.505465507507324 1.9270482063293457 -3.1059727668762207
O 7.083789825439453 2.9658117294311523 -4.037399768829346
C 7.407934188842773 5.545760154724121 -4.707629203796387
H 6.746530055999756 -6.159203052520752 -3.6859865188598633
H 4.7386393547058105 -4.462002277374268 -1.6176245212554932
H 7.763958930969238 -5.520702838897705 -0.5737964510917664
H 6.86849308013916 -1.7303844690322876 -4.5898237228393555
H 9.000198364257812 -1.0498751401901245 0.4910642206668854
H 5.887668609619141 -0.1906355768442154 -0.43652674555778503
H 8.743271827697754 3.4615626335144043 -0.5270445942878723
H 11.576669692993164 0.8956735134124756 -4.898623466491699
H 12.742158889770508 0.9904432892799377 -1.737886667251587
H 12.289380073547363 3.8056628704071045 -3.4721639156341553
H 5.8899359703063965 6.068647384643555 -6.009064674377441
H 9.208975791931152 5.8365325927734375 -5.677039623260498
H 7.28563117980957 6.760419845581055 -3.0385096073150635
