16
Generated by QM7 dataset
C 1.8649706840515137 -0.22485850751399994 -0.24866905808448792
C 4.727509021759033 -0.0775732547044754 -0.19099462032318115
N 5.914030075073242 -2.4098732471466064 -0.3616368770599365
C 5.9292426109313965 2.173884153366089 -0.022204281762242317
C 4.698596000671387 4.707988262176514 0.3492591977119446
C 8.740607261657715 2.3008549213409424 -0.23719842731952667
O 9.939166069030762 4.253357887268066 0.1037459671497345
H 0.9919739365577698 1.4644999504089355 -1.0588324069976807
H 1.1288845539093018 -0.5179739594459534 1.6621464490890503
H 1.240038275718689 -1.8077309131622314 -1.4299179315567017
H 4.753057956695557 -3.8947067260742188 0.040345653891563416
H 7.55482292175293 -2.5518672466278076 0.6298457384109497
H 2.7148184776306152 4.574516773223877 0.9084291458129883
H 4.805384635925293 5.817824363708496 -1.3933706283569336
H 5.64455509185791 5.765044212341309 1.8575818538665771
H 9.713022232055664 0.5331484079360962 -0.7469709515571594
