13
Generated by QM7 dataset
C 3.4763591289520264 -0.320289671421051 0.31671810150146484
N 1.8683722019195557 -2.4584014415740967 1.088444471359253
C -0.08101256191730499 -1.7215216159820557 -0.7572132349014282
C -2.4771852493286133 -0.5723413825035095 0.41101542115211487
N -2.4965739250183105 1.8711689710617065 0.5353026986122131
O -0.1407090127468109 2.8242335319519043 -0.4353173077106476
C 1.3507384061813354 0.7067953944206238 -1.360791802406311
H 5.168079853057861 -0.8885114192962646 -0.7346121668815613
H 4.049928665161133 0.9102432727813721 1.8752319812774658
H 2.661754846572876 -4.186007976531982 0.7876756191253662
H -0.3804963529109955 -3.0233349800109863 -2.329522132873535
H -4.051251411437988 -1.779366135597229 1.0263291597366333
H 1.8553898334503174 0.9715082049369812 -3.348349094390869
