19
Generated by QM7 dataset
N 3.513340950012207 -0.24985958635807037 -2.8319625854492188
C 5.859700679779053 0.11905274540185928 -1.3872668743133545
C 5.655270099639893 2.374478578567505 0.47275277972221375
N 3.3201544284820557 2.2108662128448486 1.9638789892196655
C 7.853947639465332 2.464939832687378 2.2672746181488037
C 10.0200834274292 4.264733791351318 1.8075230121612549
C 8.243987083435059 4.720119953155518 3.9740185737609863
H 3.772951602935791 -1.6845585107803345 -4.09210729598999
H 3.1736438274383545 1.3301970958709717 -3.8843698501586914
H 7.442194938659668 0.42369550466537476 -2.690138578414917
H 6.251743316650391 -1.629491925239563 -0.347482830286026
H 5.558912754058838 4.128881454467773 -0.6313008069992065
H 3.425185203552246 0.6488185524940491 3.0847134590148926
H 1.9244593381881714 1.7557823657989502 0.6976680159568787
H 8.293346405029297 0.6285040378570557 3.0692176818847656
H 9.921553611755371 5.558818340301514 0.22143810987472534
H 11.916631698608398 3.624230146408081 2.2464120388031006
H 8.917939186096191 4.366420269012451 5.874553680419922
H 6.910331726074219 6.2702436447143555 3.8367109298706055
