15
Generated by QM7 dataset
O 1.7564626932144165 0.22030426561832428 -0.5865331888198853
C 4.32197380065918 0.007086473051458597 0.1847018301486969
C 5.783071994781494 2.398289203643799 -0.506011962890625
C 6.714745044708252 2.2423112392425537 -3.2250444889068604
O 8.272502899169922 0.06731204688549042 -3.6645758152008057
C 7.248838424682617 -2.133425235748291 -2.76578426361084
C 5.389706611633301 -2.279897928237915 -1.063292145729065
H 0.9538203477859497 1.4281415939331055 0.5405372381210327
H 4.340322971343994 -0.2544138431549072 2.2391932010650635
H 4.608550548553467 4.086967468261719 -0.2614814043045044
H 7.4246015548706055 2.5624120235443115 0.7472922205924988
H 7.860674858093262 3.910750389099121 -3.6630072593688965
H 5.136199951171875 2.2145323753356934 -4.567014694213867
H 8.160120964050293 -3.7629549503326416 -3.599266767501831
H 4.656360626220703 -4.1092848777771 -0.4994546175003052
