14
Generated by QM7 dataset
C 2.3456225395202637 0.15403157472610474 -0.8413816690444946
O 5.011704921722412 0.4872658848762512 -0.7873355150222778
C 5.918338775634766 2.8383686542510986 -0.14276881515979767
C 4.543279647827148 4.895411014556885 0.4284954071044922
C 8.736412048339844 3.069406509399414 -0.09002654999494553
N 9.977206230163574 5.098858833312988 0.4898737072944641
O 12.571667671203613 4.597439289093018 0.3363145589828491
H 1.9605152606964111 -1.8052364587783813 -1.3781017065048218
H 1.4724935293197632 1.3841676712036133 -2.257599115371704
H 1.520719289779663 0.47449132800102234 1.0290125608444214
H 2.4988982677459717 4.904633045196533 0.43716925382614136
H 5.447986125946045 6.6737565994262695 0.9143251180648804
H 9.746337890625 1.3124715089797974 -0.5992699265480042
H 13.31453800201416 6.217312335968018 0.8063461184501648
