13
Generated by QM7 dataset
C 5.103148937225342 -2.063429832458496 0.7210438847541809
C 4.149290561676025 0.24530534446239471 0.3046427369117737
C 5.591283798217773 2.5049264430999756 0.18746083974838257
C 4.681853294372559 4.901779651641846 -0.23493075370788574
N 6.7766523361206055 6.418549537658691 -0.17583902180194855
C 8.822772026062012 4.90640926361084 0.2706087827682495
N 8.16221809387207 2.5241072177886963 0.4992278516292572
H 3.8912105560302734 -3.7125182151794434 0.7870520353317261
H 7.118201732635498 -2.339348554611206 1.0031800270080566
H 2.120140552520752 0.4134153723716736 0.03477096185088158
H 2.8072826862335205 5.640832424163818 -0.5600203275680542
H 6.817168235778809 8.311676979064941 -0.4167224168777466
H 10.72512149810791 5.641059398651123 0.40772730112075806
