20
Generated by QM7 dataset
C 7.271533966064453 6.543158054351807 -6.02610969543457
C 7.370800971984863 4.249049186706543 -4.3147358894348145
O 9.305238723754883 4.639353275299072 -2.4796042442321777
C 9.48583984375 2.568232297897339 -0.7631658911705017
C 11.640693664550781 3.0445566177368164 1.090164065361023
C 11.176294326782227 5.398380756378174 2.6956753730773926
N 13.213569641113281 5.71931266784668 4.533452987670898
H 5.820413112640381 6.317165374755859 -7.4794416427612305
H 9.099560737609863 6.84572172164917 -6.94729471206665
H 6.859951496124268 8.250223159790039 -4.931240558624268
H 7.798635005950928 2.557385206222534 -5.429069995880127
H 5.54670524597168 3.9968085289001465 -3.368380069732666
H 9.866127967834473 0.8294007778167725 -1.8219983577728271
H 7.695475101470947 2.349080801010132 0.25515082478523254
H 13.408702850341797 3.2814149856567383 0.03271115943789482
H 11.8569917678833 1.3836952447891235 2.3106436729431152
H 9.38163948059082 5.2245259284973145 3.71195125579834
H 11.06640625 7.087210178375244 1.5040708780288696
H 14.87966537475586 5.956794738769531 3.5944857597351074
H 12.92177677154541 7.352433204650879 5.512633323669434
