14
Generated by QM7 dataset
C 1.7687647342681885 0.014777658507227898 -0.0006991986883804202
C 4.583152770996094 0.10856476426124573 -0.0031180481892079115
C 6.0147905349731445 2.290820598602295 0.015873700380325317
S 9.189813613891602 1.697389841079712 -0.012793445959687233
C 8.717552185058594 -1.4929592609405518 -0.06336251646280289
N 10.668316841125488 -3.1245110034942627 -0.1264037787914276
C 6.183826446533203 -2.079265594482422 -0.037662241607904434
H 0.9476598501205444 1.9138579368591309 0.020938165485858917
H 1.0833611488342285 -1.0007233619689941 1.6664360761642456
H 1.082265019416809 -0.9609068632125854 -1.6912859678268433
H 5.350740432739258 4.223462104797363 0.03915512561798096
H 10.419968605041504 -4.996265888214111 0.19664490222930908
H 12.450215339660645 -2.4798877239227295 0.16826121509075165
H 5.486347198486328 -4.003006935119629 -0.06289008259773254
