16
Generated by QM7 dataset
C 6.035331726074219 -2.6142282485961914 -1.167000412940979
C 4.848697185516357 -0.36311087012290955 0.15711182355880737
N 5.979830265045166 1.9846282005310059 -0.6510862708091736
C 8.166678428649902 2.933894395828247 0.39962038397789
O 9.299474716186523 1.9471170902252197 2.163698673248291
C 9.032720565795898 5.401177406311035 -0.8346731066703796
O 8.21794605255127 5.612581253051758 -3.391472578048706
H 5.128565311431885 -4.370898723602295 -0.5585652589797974
H 8.057621955871582 -2.749929428100586 -0.7459505200386047
H 5.831014633178711 -2.4552834033966064 -3.221057176589966
H 5.064144611358643 -0.553500771522522 2.2055749893188477
H 2.8312253952026367 -0.2588546872138977 -0.2808322012424469
H 5.250641822814941 2.9394500255584717 -2.149639129638672
H 11.097076416015625 5.500369071960449 -0.7910582423210144
H 8.248106956481934 6.983029365539551 0.23937161266803741
H 9.189568519592285 4.371201038360596 -4.3427228927612305
