17
Generated by QM7 dataset
C 1.9769558906555176 0.04335031658411026 -0.9521006941795349
N 4.701619625091553 0.38760173320770264 -0.9079000353813171
C 5.646615028381348 2.4842529296875 -0.05635163187980652
C 3.9911961555480957 4.604109764099121 0.9698641300201416
N 8.254928588867188 2.8698325157165527 -0.05761775001883507
C 9.898971557617188 1.2050594091415405 -1.5083982944488525
O 8.958378791809082 5.409738063812256 -0.3206298351287842
H 1.5356858968734741 -1.6570252180099487 -2.044872760772705
H 1.0022917985916138 1.6205157041549683 -1.870394229888916
H 1.2274715900421143 -0.2394282966852188 0.954859733581543
H 2.432474374771118 3.849372148513794 2.0939488410949707
H 3.2322254180908203 5.693026542663574 -0.614066481590271
H 5.071873664855957 5.866106986999512 2.198186159133911
H 9.635297775268555 -0.76724773645401 -0.9428977370262146
H 11.882012367248535 1.6884891986846924 -1.1682665348052979
H 9.52079963684082 1.383827567100525 -3.5346572399139404
H 9.75223445892334 5.774946212768555 1.3026071786880493
