16
Generated by QM7 dataset
C 0.2993893027305603 0.961757242679596 -0.7051135301589966
C 2.6380388736724854 -0.403116375207901 0.06192632392048836
C 4.023075580596924 -2.0546047687530518 -1.7900997400283813
C 5.164262294769287 0.42023730278015137 -0.9642705321311951
O 7.273423671722412 0.22160817682743073 0.7429458498954773
N 7.435883522033691 2.5445539951324463 1.9966846704483032
C 9.275795936584473 2.4360270500183105 3.5869836807250977
H 0.04096926376223564 2.64546537399292 0.46851980686187744
H -1.3514376878738403 -0.25868460536003113 -0.4529106616973877
H 0.359218031167984 1.5609138011932373 -2.685187339782715
H 2.5643205642700195 -0.9977186918258667 2.0203816890716553
H 3.326428174972534 -2.1831061840057373 -3.710836410522461
H 4.867783546447754 -3.7821545600891113 -1.0866113901138306
H 5.214264392852783 1.9271049499511719 -2.3551278114318848
H 9.720259666442871 4.08600378036499 4.774449825286865
H 10.465189933776855 0.742000937461853 3.837996006011963
