14
Generated by QM7 dataset
O 3.853472948074341 -0.7442686557769775 -2.487975597381592
C 3.798311710357666 0.3188912868499756 -0.01863269880414009
C 5.830976963043213 2.3354179859161377 0.15463629364967346
C 5.3604536056518555 4.836451530456543 -1.2858830690383911
C 5.933399677276611 6.073409557342529 1.280724048614502
O 6.5753021240234375 8.10773754119873 2.0807206630706787
N 5.632309913635254 3.8280560970306396 2.5064570903778076
H 2.5560436248779297 -2.047083616256714 -2.5420784950256348
H 4.1550164222717285 -1.193078637123108 1.3478282690048218
H 1.9094170331954956 1.0932632684707642 0.32006290555000305
H 7.747310161590576 1.5772032737731934 -0.08116373419761658
H 3.4328954219818115 5.177131652832031 -1.9484399557113647
H 6.725289821624756 5.268272876739502 -2.770792007446289
H 6.60584020614624 3.601553440093994 4.135514259338379
