18
Generated by QM7 dataset
C 1.9904296398162842 -0.04310465231537819 0.11941179633140564
N 4.746406078338623 0.008976198732852936 -0.13536109030246735
C 5.63378381729126 -2.2384750843048096 -1.5537139177322388
C 6.285191535949707 -1.3125470876693726 -4.129146099090576
C 6.210641860961914 1.2088767290115356 -4.198007583618164
C 6.789597034454346 2.875199317932129 -6.375369071960449
C 5.530699253082275 2.229234218597412 -1.6587449312210083
H 1.3355261087417603 1.6233881711959839 1.159460425376892
H 1.3998335599899292 -1.6948953866958618 1.2191946506500244
H 1.0181466341018677 -0.09386269748210907 -1.7093517780303955
H 4.220514297485352 -3.7499725818634033 -1.6356335878372192
H 7.32792329788208 -3.003114938735962 -0.6412407755851746
H 6.78126335144043 -2.5347840785980225 -5.685543537139893
H 7.059450149536133 4.831840515136719 -5.758600234985352
H 5.235769748687744 2.8470802307128906 -7.740942001342773
H 8.525443077087402 2.2759294509887695 -7.327753067016602
H 7.198514938354492 3.0921778678894043 -0.7838584184646606
H 4.054199695587158 3.676065444946289 -1.7828620672225952
