13
Generated by QM7 dataset
C 1.8885166645050049 0.007861260324716568 -0.021278316155076027
N 4.6512017250061035 0.02099485695362091 -0.02706087753176689
C 5.618779182434082 -1.3462220430374146 -2.224169969558716
C 5.604663372039795 2.6139070987701416 -0.006481760647147894
H 1.159838318824768 0.9632123112678528 1.665793538093567
H 1.1700994968414307 -1.933737874031067 0.04149838536977768
H 1.0954742431640625 0.9418584108352661 -1.692098617553711
H 4.970905780792236 -3.3133513927459717 -2.200340509414673
H 7.68889856338501 -1.4045767784118652 -2.191420793533325
H 5.019887447357178 -0.4850549101829529 -4.01096248626709
H 4.942729949951172 3.6195058822631836 1.6789082288742065
H 5.008794784545898 3.682811737060547 -1.6784169673919678
H 7.6743855476379395 2.6274185180664062 0.07120487838983536
