17
Generated by QM7 dataset
C 1.7751331329345703 0.02462313137948513 0.026097116991877556
C 4.636556625366211 0.008277000859379768 0.02571917325258255
C 5.968322277069092 1.8972283601760864 1.8046317100524902
N 7.860637187957764 -0.08673842996358871 2.3829257488250732
C 5.954678058624268 -2.0298116207122803 1.6680612564086914
C 7.108582973480225 -4.264488220214844 0.2937012314796448
H 1.040785551071167 -1.5906580686569214 -1.0358155965805054
H 1.0586434602737427 1.7489982843399048 -0.8618285059928894
H 1.0081499814987183 -0.07135605812072754 1.9460399150848389
H 5.380673885345459 0.10404831916093826 -1.9118359088897705
H 4.865818023681641 2.476731777191162 3.460731029510498
H 6.737157344818115 3.587852954864502 0.8980923295021057
H 9.385514259338379 -0.0320686511695385 1.202754020690918
H 4.8245086669921875 -2.6509077548980713 3.2955312728881836
H 8.27796459197998 -3.673362970352173 -1.3080683946609497
H 5.620914936065674 -5.502901554107666 -0.4350905418395996
H 8.28779125213623 -5.38330078125 1.5725356340408325
