15
Generated by QM7 dataset
N 1.7889281511306763 2.334851026535034 0.6226080656051636
N 4.219531536102295 3.0908172130584717 0.3921370804309845
C 5.772187232971191 1.2199316024780273 0.08386604487895966
C 8.542374610900879 1.5826456546783447 -0.2200774997472763
C 9.953282356262207 -0.504575788974762 -0.5245313048362732
C 9.468945503234863 4.261238098144531 -0.17557445168495178
O 12.161993980407715 4.382728576660156 -0.25176820158958435
H 0.628655195236206 3.7878992557525635 0.08314795047044754
H 1.3540643453598022 2.0825347900390625 2.491415023803711
H 5.094815254211426 -0.7584604620933533 0.02345150150358677
H 9.142948150634766 -2.3895208835601807 -0.5526881814002991
H 11.982810020446777 -0.37913575768470764 -0.8059114813804626
H 8.847282409667969 5.239058017730713 1.5396543741226196
H 8.750244140625 5.2964677810668945 -1.8160457611083984
H 12.754781723022461 3.7321901321411133 1.3607728481292725
