16
Generated by QM7 dataset
C 2.634882926940918 -0.2301497459411621 -0.45064300298690796
N 5.219159126281738 -0.33533191680908203 0.4849226176738739
C 6.633808135986328 1.9315835237503052 -0.24575889110565186
C 9.349590301513672 1.8100552558898926 0.6471745371818542
C 10.267316818237305 3.4057021141052246 2.3952279090881348
C 11.025928497314453 -0.00020786987442988902 -0.45243823528289795
C 12.426215171813965 -1.5327569246292114 -1.371204137802124
H 1.6352177858352661 -1.957397222518921 0.09246429800987244
H 2.5757534503936768 -0.0852266475558281 -2.513845920562744
H 1.6077412366867065 1.3668389320373535 0.37055638432502747
H 6.10383415222168 -1.873984694480896 -0.266394704580307
H 5.702513217926025 3.6047093868255615 0.5507040023803711
H 6.623584747314453 2.157670497894287 -2.3079981803894043
H 9.075258255004883 4.821730613708496 3.277163028717041
H 12.22369384765625 3.3205511569976807 3.0082173347473145
H 13.671167373657227 -2.895608425140381 -2.1729204654693604
