14
Generated by QM7 dataset
C 2.029679298400879 -1.5909037590026855 -0.23990073800086975
C 4.231191158294678 0.10344360768795013 0.4848470389842987
N 3.4533989429473877 2.728821277618408 0.424791544675827
C 5.064144611358643 4.705644607543945 0.8625277280807495
N 7.48599910736084 4.756043910980225 0.6731582283973694
C 4.005218029022217 7.127933502197266 1.6540205478668213
N 3.028550624847412 8.987650871276855 2.2998344898223877
H 2.6040236949920654 -3.577723979949951 -0.19454731047153473
H 1.3552170991897583 -1.1541690826416016 -2.147503614425659
H 0.4411943554878235 -1.3481495380401611 1.0638402700424194
H 5.78889274597168 -0.21654371917247772 -0.8386793732643127
H 4.887946605682373 -0.38644900918006897 2.385457992553711
H 1.6387138366699219 3.0317442417144775 0.9859079122543335
H 8.127901077270508 3.040966272354126 0.0699765607714653
