14
Generated by QM7 dataset
C 1.8459789752960205 -0.2959122061729431 -0.0960925742983818
C 4.647100925445557 0.027873460203409195 -0.005366822239011526
C 5.814498424530029 2.2786316871643066 0.02808132953941822
C 8.613239288330078 2.42136287689209 0.11831575632095337
O 9.99755859375 0.5623447299003601 0.1626676321029663
N 9.521309852600098 4.841119289398193 0.14792776107788086
O 12.174050331115723 5.122783184051514 0.2344772219657898
H 1.3142856359481812 -1.3623791933059692 -1.7863013744354248
H 0.8504145741462708 1.5169776678085327 -0.1374586820602417
H 1.2038122415542603 -1.346940040588379 1.5651845932006836
H 5.7608866691589355 -1.7035881280899048 0.034374117851257324
H 4.755590438842773 4.02904748916626 -0.00978878140449524
H 8.472208976745605 6.443437099456787 0.11616146564483643
H 12.753213882446289 3.357722043991089 0.25244852900505066
