16
Generated by QM7 dataset
C 2.011991500854492 0.1719272881746292 -0.21544767916202545
C 4.822864532470703 0.0699387639760971 -0.0792173221707344
C 6.3119120597839355 -1.234199047088623 -2.130741834640503
C 6.512317657470703 1.5876156091690063 -1.8164236545562744
C 5.491525173187256 3.2978177070617676 -3.8201003074645996
O 8.813512802124023 2.5034713745117188 -0.7103291749954224
H 1.304534673690796 1.7588248252868652 0.9039127230644226
H 1.2093679904937744 -1.5690017938613892 0.5659351944923401
H 1.3040432929992676 0.3728429675102234 -2.145576238632202
H 5.444055557250977 -0.1946984827518463 1.85659921169281
H 5.3044233322143555 -1.9621214866638184 -3.7594211101531982
H 7.9101667404174805 -2.3902769088745117 -1.5789040327072144
H 3.909899950027466 2.458930492401123 -4.854252815246582
H 6.96993350982666 3.733928680419922 -5.20181131362915
H 4.849377632141113 5.076465606689453 -2.983499526977539
H 9.44936752319336 1.3860573768615723 0.6028604507446289
