17
Generated by QM7 dataset
C 1.9839478731155396 -0.2132744938135147 0.1957378387451172
N 4.725297927856445 -0.522490382194519 -0.14118143916130066
C 5.268197536468506 -3.2368173599243164 -0.42639780044555664
N 5.71712064743042 1.008981466293335 -1.9554129838943481
C 8.030183792114258 1.6707258224487305 -1.4902758598327637
C 9.443093299865723 3.332796573638916 -3.33725643157959
O 7.799069881439209 4.771596431732178 -4.879915237426758
H 1.5325678586959839 1.7768528461456299 0.5465087890625
H 1.3101471662521362 -1.281857967376709 1.8356988430023193
H 0.9352065920829773 -0.8242607712745667 -1.4824146032333374
H 4.565672874450684 -4.306534767150879 1.2010343074798584
H 7.310840129852295 -3.5597527027130127 -0.5151771306991577
H 4.420579433441162 -4.00410270690918 -2.1525869369506836
H 9.095440864562988 0.9984368085861206 0.17498864233493805
H 10.629672050476074 2.131535530090332 -4.5300517082214355
H 10.66312026977539 4.619983673095703 -2.2766664028167725
H 6.238590717315674 3.7851781845092773 -4.9925618171691895
