15
Generated by QM7 dataset
C 1.8593581914901733 0.05007774382829666 -0.2739724814891815
C 4.6854248046875 -0.07723310589790344 0.1881789267063141
C 5.9092302322387695 -2.320375919342041 -1.0366281270980835
C 7.69885778427124 -1.704022765159607 -2.7111899852752686
C 8.065559387207031 1.0791469812393188 -2.9946680068969727
C 6.0828962326049805 2.032835006713867 -1.1699483394622803
O 5.658501625061035 4.289130210876465 -0.82342928647995
H 1.0620827674865723 1.765741229057312 0.5655761361122131
H 0.8976954817771912 -1.579697608947754 0.5634029507637024
H 1.4121923446655273 0.09100920706987381 -2.2959227561950684
H 5.144382476806641 -0.021901926025748253 2.2039308547973633
H 5.393108367919922 -4.246573448181152 -0.5745712518692017
H 8.793670654296875 -3.069425582885742 -3.770646095275879
H 9.948028564453125 1.6616172790527344 -2.384002923965454
H 7.643640041351318 1.7081423997879028 -4.9134202003479
