17
Generated by QM7 dataset
C 4.630774021148682 -1.1571171283721924 2.6603565216064453
C 4.840476989746094 -0.08721086382865906 -0.0017574452795088291
C 5.696957588195801 2.6399285793304443 0.0
C 4.114462852478027 4.6345343589782715 -0.0640428215265274
C 1.2888121604919434 4.594264507293701 -0.0446731261909008
C 8.309428215026855 3.1241331100463867 0.0
C 10.520842552185059 3.5339956283569336 0.0
H 4.018824100494385 -3.1319942474365234 2.5872995853424072
H 3.249951124191284 -0.10331133008003235 3.7855184078216553
H 6.450201988220215 -1.0915435552597046 3.6445069313049316
H 3.02592396736145 -0.2983877658843994 -0.9757789969444275
H 6.179404258728027 -1.235351800918579 -1.09379243850708
H 4.922717571258545 6.5303263664245605 -0.10565458983182907
H 0.49476808309555054 2.7161221504211426 0.27106231451034546
H 0.5651981830596924 5.315913200378418 -1.8415380716323853
H 0.5932228565216064 5.820583343505859 1.468676209449768
H 12.499139785766602 3.902832508087158 0.00018897261179517955
