16
Generated by QM7 dataset
O 1.6167552471160889 0.17583902180194855 0.23823776841163635
C 4.2881855964660645 -0.10531444102525711 0.15866141021251678
C 5.476936340332031 2.514885425567627 0.05003994703292847
C 8.352362632751465 2.4344208240509033 0.10272551327943802
C 9.381621360778809 1.3091267347335815 -2.2935984134674072
N 10.549887657165527 -0.8368462920188904 -2.2558605670928955
O 11.293116569519043 -1.4433538913726807 -4.718740463256836
H 0.9020796418190002 -1.5162595510482788 0.3152441084384918
H 4.772314548492432 -1.2231630086898804 -1.5124045610427856
H 4.892368793487549 -1.1247838735580444 1.8542181253433228
H 4.795577049255371 3.6318836212158203 1.6581401824951172
H 4.806197166442871 3.5002830028533936 -1.6465373039245605
H 9.031700134277344 1.3639854192733765 1.7388315200805664
H 9.09432601928711 4.361979007720947 0.24188494682312012
H 9.073066711425781 2.3742141723632812 -4.061645030975342
H 12.211618423461914 -3.024298906326294 -4.479142189025879
