15
Generated by QM7 dataset
N 2.3168797492980957 0.07069465517997742 1.177960753440857
C 4.41965389251709 -0.02142949402332306 -0.024849899113178253
N 5.69822359085083 -2.1896822452545166 -0.41944360733032227
C 7.746157646179199 -2.4552645683288574 -2.1730904579162598
C 9.300381660461426 -0.05706973001360893 -2.102433681488037
C 7.53688907623291 2.1518123149871826 -2.5674197673797607
O 5.381221771240234 2.1680262088775635 -0.9071630239486694
H 1.8056522607803345 1.9407864809036255 1.2000328302383423
H 4.702545642852783 -3.7587409019470215 0.04191412404179573
H 8.913649559020996 -4.082148551940918 -1.654852032661438
H 7.001586437225342 -2.7951316833496094 -4.074986457824707
H 10.177800178527832 0.1425987333059311 -0.23470398783683777
H 10.811917304992676 -0.10582466423511505 -3.5142481327056885
H 8.551521301269531 3.931480646133423 -2.276137351989746
H 6.830925464630127 2.152435779571533 -4.513875484466553
