18
Generated by QM7 dataset
C 2.1097280979156494 0.13362254202365875 0.3111433982849121
C 4.9626288414001465 0.09320129454135895 -0.13853582739830017
N 5.507890224456787 -1.382939338684082 -2.4249532222747803
C 5.953090667724609 2.8162589073181152 -0.36906352639198303
C 5.979811668395996 4.420938491821289 2.0537543296813965
C 8.762962341308594 4.843235969543457 1.4375146627426147
O 8.705949783325195 2.917283535003662 -0.4976404905319214
H 1.6506757736206055 1.1534132957458496 2.0526962280273438
H 1.3550281524658203 -1.7856777906417847 0.4933130145072937
H 1.1109510660171509 1.0754809379577637 -1.2394146919250488
H 5.881564617156982 -0.8484681248664856 1.4612873792648315
H 4.680322647094727 -0.5667855739593506 -3.9589195251464844
H 4.757839202880859 -3.1467719078063965 -2.264817953109741
H 5.142889499664307 3.8192498683929443 -1.9957776069641113
H 5.654797554016113 3.3887135982513428 3.8140530586242676
H 4.799337387084961 6.113736629486084 2.001673460006714
H 9.22713565826416 6.693580150604248 0.6407116651535034
H 10.084107398986816 4.3741679191589355 2.9545300006866455
