17
Generated by QM7 dataset
C 1.8640447854995728 0.280151903629303 -0.3889623284339905
C 4.645683765411377 0.1510080099105835 0.0303678996860981
C 6.271868705749512 -1.4708683490753174 -1.6359736919403076
C 6.438977241516113 1.3787442445755005 -1.8330532312393188
C 8.701054573059082 2.7323927879333496 -0.9207123517990112
N 8.285844802856445 4.7235026359558105 0.6240820288658142
N 10.921124458312988 2.0253896713256836 -1.5980091094970703
H 1.110044002532959 2.040242910385132 0.39272287487983704
H 0.9272130131721497 -1.3004339933395386 0.560398280620575
H 1.3740198612213135 0.20618802309036255 -2.397968053817749
H 5.113221168518066 0.19964957237243652 2.025540828704834
H 5.396906852722168 -2.481985092163086 -3.1881191730499268
H 7.813979625701904 -2.4886560440063477 -0.7478780150413513
H 5.615944862365723 2.2195022106170654 -3.517158269882202
H 6.706524848937988 4.686634063720703 1.695500135421753
H 9.8658447265625 5.275434970855713 1.5548666715621948
H 10.795552253723145 0.504859209060669 -2.790860891342163
