16
Generated by QM7 dataset
C 1.9541468620300293 -0.03435521945357323 -0.03658509626984596
C 4.818310260772705 -0.03278674930334091 0.18179164826869965
C 5.816501617431641 2.260528087615967 1.6215550899505615
C 8.27548885345459 1.2217646837234497 2.5684590339660645
O 10.01662540435791 2.5157735347747803 3.3726320266723633
C 8.303342819213867 -1.6318352222442627 2.391448497772217
N 5.702154159545898 -2.2388908863067627 1.6204779148101807
H 1.2920624017715454 -1.7028132677078247 -1.0688668489456177
H 1.301945686340332 1.644628643989563 -1.0572261810302734
H 1.0452830791473389 -0.036887455731630325 1.8249274492263794
H 5.651226043701172 -0.0817684531211853 -1.718271255493164
H 4.635857105255127 2.776461124420166 3.2382915019989014
H 6.127304553985596 3.8764140605926514 0.3751106262207031
H 9.663378715515137 -2.2096567153930664 0.946261465549469
H 8.741098403930664 -2.4767885208129883 4.222082614898682
H 5.665191173553467 -3.8347835540771484 0.5424647927284241
