9
Generated by QM7 dataset
C 1.66261887550354 0.24515417218208313 -1.8897260815720074e-05
C 3.928154706954956 0.1130623146891594 0.000453534274129197
C 6.617008209228516 -0.03735988587141037 0.0010015548905357718
N 8.043676376342773 2.001295566558838 0.0016440617619082332
N 10.592576026916504 1.4215086698532104 0.002097595948725939
C 10.974546432495117 -1.0342849493026733 0.0017574452795088291
S 8.275733947753906 -2.825613021850586 0.000869274022988975
H -0.34776630997657776 0.3785877227783203 -0.0004346370114944875
H 12.845376014709473 -1.8551630973815918 0.0020031097810715437
