13
Generated by QM7 dataset
C 1.889726161956787 0.0 0.0
C 4.618490695953369 0.0 0.0
C 6.86756706237793 0.0 0.0
C 9.60449504852295 -0.012604473158717155 0.0011716302251443267
O 10.73583698272705 -2.0260698795318604 0.17897596955299377
N 10.863997459411621 2.272735834121704 -0.20055663585662842
N 9.6732816696167 4.648499488830566 -0.41037291288375854
H 1.145438551902771 1.9292969703674316 0.021353906020522118
H 1.1450039148330688 -0.9829599261283875 1.6600298881530762
H 1.1450417041778564 -0.9459213018417358 -1.6814216375350952
H 12.784734725952148 2.172051191329956 -0.19159933924674988
H 8.5097017288208 4.894428253173828 1.1167525053024292
H 8.510173797607422 4.6231770515441895 -1.9573404788970947
