20
Generated by QM7 dataset
C 1.8858144283294678 0.06644277274608612 0.24577778577804565
N 4.6288652420043945 0.015193398110568523 -0.06648056209087372
C 5.533080101013184 -2.430868148803711 -1.0191670656204224
C 4.966294765472412 -2.894493579864502 -3.817171096801758
C 5.9289021492004395 -0.7257493138313293 -5.452219009399414
C 4.982414245605469 1.809639573097229 -4.460018157958984
C 5.5473856925964355 2.1104650497436523 -1.6395453214645386
H 1.291911244392395 1.8564670085906982 1.0996694564819336
H 1.2806484699249268 -1.4290298223495483 1.5436794757843018
H 0.853438138961792 -0.17016984522342682 -1.5303946733474731
H 4.750903606414795 -3.9767019748687744 0.11916612833738327
H 7.585946559906006 -2.518267869949341 -0.7298500537872314
H 5.8584723472595215 -4.663069248199463 -4.420617580413818
H 2.9284708499908447 -3.129102945327759 -4.103067874908447
H 8.003066062927246 -0.7322499752044678 -5.452030181884766
H 5.323641777038574 -0.9915392994880676 -7.414869785308838
H 5.886270046234131 3.3454954624176025 -5.515203475952148
H 2.9457240104675293 1.9726284742355347 -4.80137825012207
H 7.600667476654053 2.2599802017211914 -1.3818433284759521
H 4.774903297424316 3.909162998199463 -0.9589604139328003
