19
Generated by QM7 dataset
C 1.4435807466506958 0.5383829474449158 -1.4551646709442139
C 2.883230686187744 1.004408359527588 0.9839615225791931
C 4.997399806976318 2.9196834564208984 0.5561652779579163
N 4.5016865730285645 5.457150936126709 0.840096652507782
C 2.2729437351226807 6.52860689163208 1.9829274415969849
N 7.138497352600098 1.963104248046875 -0.10145939886569977
C 9.261113166809082 3.6205263137817383 -0.6283339262008667
H -0.05236431211233139 -0.8573120832443237 -1.1524494886398315
H 2.7024028301239014 -0.17428943514823914 -2.935009241104126
H 0.5746090412139893 2.2792930603027344 -2.1566309928894043
H 3.7156362533569336 -0.7736160755157471 1.645422339439392
H 1.5981602668762207 1.6543985605239868 2.4654879570007324
H 6.023899078369141 6.61568546295166 0.8191773891448975
H 2.1089532375335693 5.948328971862793 3.960714817047119
H 0.5668611526489258 5.968435287475586 0.9598296880722046
H 2.3871209621429443 8.593472480773926 1.9315646886825562
H 10.847689628601074 2.4866340160369873 -1.3171957731246948
H 9.8931884765625 4.598762035369873 1.0813013315200806
H 8.81013011932373 5.001556873321533 -2.1025660037994385
