13
Generated by QM7 dataset
C 1.6951032876968384 -2.373004674911499 0.6327747702598572
C -0.9098842144012451 -2.8995580673217773 -0.32352110743522644
C -2.73972487449646 -1.1740868091583252 -0.5159330368041992
C -2.3735337257385254 1.4069766998291016 0.48286283016204834
N -0.4057619869709015 2.841524600982666 0.5822435021400452
N 1.8345082998275757 2.23067045211792 -0.6378581523895264
C 2.7845115661621094 -0.02210979536175728 -0.5308240652084351
H 2.916149854660034 -3.931934356689453 0.016572898253798485
H 1.7872273921966553 -2.2974913120269775 2.6940879821777344
H -1.3166477680206299 -4.833484649658203 -0.8903255462646484
H -4.622591495513916 -1.652357578277588 -1.1669626235961914
H -4.1107401847839355 2.2062742710113525 1.3172903060913086
H 4.672423362731934 -0.2512390911579132 -1.3901203870773315
