17
Generated by QM7 dataset
C 3.7497646808624268 -2.216289758682251 -2.742313861846924
C 4.344858169555664 -1.1048473119735718 -0.15584571659564972
C 6.1101460456848145 1.1736711263656616 -0.3053986430168152
N 8.612181663513184 0.33117449283599854 -1.1517125368118286
C 10.171394348144531 2.1734118461608887 -1.4734950065612793
N 12.619780540466309 1.8864002227783203 -2.2729249000549316
O 13.536712646484375 -0.5675036311149597 -1.8910489082336426
H 2.431302785873413 -3.7976503372192383 -2.550034284591675
H 5.457094669342041 -2.9215354919433594 -3.6701505184173584
H 2.8776183128356934 -0.800847053527832 -3.971240520477295
H 5.182214736938477 -2.5749785900115967 1.0422595739364624
H 2.5704243183135986 -0.5212242603302002 0.7404513955116272
H 6.260908126831055 2.023348569869995 1.5781859159469604
H 5.325059413909912 2.588641405105591 -1.5995965003967285
H 9.673318862915039 4.176616191864014 -1.1512967348098755
H 13.871628761291504 3.262460947036743 -1.7895328998565674
H 11.986533164978027 -1.5956847667694092 -1.9196783304214478
