16
Generated by QM7 dataset
C 1.9322072267532349 0.016761871054768562 0.1787302941083908
C 4.790701389312744 0.05425403639674187 -0.033769406378269196
N 5.921267986297607 2.11673903465271 1.4857783317565918
C 8.434131622314453 1.1613879203796387 2.1964664459228516
C 8.110931396484375 -1.6258636713027954 2.823439836502075
C 5.999937057495117 -2.310473680496216 1.0641803741455078
O 5.332334518432617 -4.481882572174072 0.6358739733695984
H 1.1389189958572388 -1.5190563201904297 -0.9613603949546814
H 1.113067626953125 1.7960524559020996 -0.4900437891483307
H 1.3132840394973755 -0.28969502449035645 2.13187575340271
H 5.391407489776611 0.24233847856521606 -2.0056607723236084
H 4.87471866607666 2.358661651611328 3.090552568435669
H 9.73103141784668 1.4024602174758911 0.5968888998031616
H 9.213567733764648 2.2192187309265137 3.7939465045928955
H 9.813819885253906 -2.713930130004883 2.4095520973205566
H 7.4866790771484375 -1.906884789466858 4.772106647491455
