17
Generated by QM7 dataset
C -2.3803367614746094 -1.4604370594024658 -0.9741538166999817
C -2.3125901222229004 1.4424846172332764 -1.012553095817566
C 0.022997967898845673 2.0095725059509277 0.6038997769355774
C -0.036396127194166183 -0.06181294098496437 2.588263511657715
C -0.02910178154706955 -2.1313464641571045 0.5969077944755554
C 2.3160295486450195 -1.3625869750976562 -0.9008513689041138
O 2.2084474563598633 1.368709683418274 -0.9128133058547974
H -2.3187506198883057 -2.263967514038086 -2.8791301250457764
H -4.106525897979736 -2.123995542526245 -0.04267001524567604
H -4.032845497131348 2.216289758682251 -0.16295108199119568
H -2.1203105449676514 2.1571412086486816 -2.9442121982574463
H 0.14514987170696259 3.9495275020599365 1.2957285642623901
H -1.7314426898956299 -0.035300083458423615 3.7724225521087646
H 1.662203073501587 -0.10147829353809357 3.769550085067749
H -0.006462863180786371 -4.0759501457214355 1.2831807136535645
H 4.066388130187988 -1.9321315288543701 0.04603372886776924
H 2.327273368835449 -2.0651493072509766 -2.844944953918457
