20
Generated by QM7 dataset
C 5.449365615844727 -1.6006547212600708 -2.090981960296631
C 4.978124618530273 -0.3214235305786133 0.44724148511886597
C 6.113868713378906 2.3584537506103516 0.6238363981246948
N 5.354198932647705 3.427056074142456 3.0677247047424316
C 5.869659423828125 6.1211442947387695 3.273383617401123
C 8.953163146972656 2.292766809463501 0.372786283493042
C 10.251953125 3.4676475524902344 -1.4576025009155273
H 4.4649505615234375 -3.418684720993042 -2.159560203552246
H 7.460808753967285 -1.967620611190796 -2.3954925537109375
H 4.750828266143799 -0.43548738956451416 -3.6500627994537354
H 5.727854251861572 -1.533909559249878 1.955772042274475
H 2.925844192504883 -0.21365243196487427 0.7379947304725647
H 5.276247501373291 3.4931588172912598 -0.8983002305030823
H 6.228952884674072 2.4788105487823486 4.494826793670654
H 4.936474800109863 7.184360980987549 1.7633979320526123
H 7.895540237426758 6.535088539123535 3.243110179901123
H 5.120742321014404 6.820456027984619 5.070418834686279
H 9.990169525146484 1.1995036602020264 1.7706166505813599
H 9.309338569641113 4.577615737915039 -2.9030728340148926
H 12.297411918640137 3.340676784515381 -1.540712594985962
