18
Generated by QM7 dataset
C 2.6036078929901123 -0.5845679044723511 -1.2777193784713745
N 5.3471879959106445 -0.3712177872657776 -1.3493589162826538
C 6.2403669357299805 1.4371367692947388 0.543277382850647
C 9.083535194396973 1.5317741632461548 0.49144217371940613
C 10.4883394241333 -0.8269063830375671 1.183667778968811
C 10.413468360900879 3.5506064891815186 -1.0363447666168213
O 10.104705810546875 3.771061897277832 1.6473309993743896
H 1.9874439239501953 -2.006303310394287 -2.647373914718628
H 1.693100094795227 1.2081774473190308 -1.7649853229522705
H 1.9439802169799805 -1.1932297945022583 0.587100088596344
H 5.889615058898926 0.22366797924041748 -3.0983192920684814
H 5.624996662139893 0.8679323196411133 2.438786029815674
H 5.445302486419678 3.3145041465759277 0.16204401850700378
H 12.486101150512695 -0.44484153389930725 1.5681703090667725
H 10.397783279418945 -2.1998679637908936 -0.3618069589138031
H 9.675889015197754 -1.6964638233184814 2.8756906986236572
H 9.303046226501465 4.797844409942627 -2.218519687652588
H 12.297959327697754 3.175344705581665 -1.7407779693603516
