18
Generated by QM7 dataset
C 1.8413491249084473 0.11039780080318451 -0.04830139875411987
C 4.716699600219727 -0.00039684248622506857 0.13033440709114075
N 5.482738018035889 -2.390031099319458 1.3789142370224
C 6.4999775886535645 -1.6882624626159668 3.886051654815674
C 6.83976936340332 1.0844571590423584 3.816868782043457
C 5.816463470458984 2.052091360092163 1.7273797988891602
C 5.737133026123047 4.754683017730713 0.9698452353477478
H 1.115127444267273 -1.4761217832565308 -1.1604996919631958
H 1.230419635772705 1.8623440265655518 -0.9750608801841736
H 0.9481133818626404 0.04232986643910408 1.8179354667663574
H 5.532777786254883 0.056635092943906784 -1.775435447692871
H 6.954078674316406 -3.114041805267334 0.3626384437084198
H 8.288357734680176 -2.6620383262634277 4.238901615142822
H 5.151677131652832 -2.2253224849700928 5.365858554840088
H 7.738390922546387 2.15872859954834 5.304272174835205
H 5.775135517120361 4.941955089569092 -1.0955876111984253
H 7.370007514953613 5.791046619415283 1.7133580446243286
H 4.007901191711426 5.6533989906311035 1.6670218706130981
