17
Generated by QM7 dataset
N 2.033534288406372 0.3830852806568146 0.4514177739620209
C 4.661047458648682 -0.16931946575641632 -0.1711146980524063
C 5.121479034423828 -2.90545392036438 -1.141659140586853
N 5.54919958114624 -2.799515962600708 -3.896369695663452
C 6.138869762420654 -0.1610613614320755 -4.504275798797607
C 4.070677757263184 1.757067322731018 -4.729115009307861
C 5.523253917694092 1.4984772205352783 -2.2887985706329346
H 1.8910678625106812 2.192044496536255 1.0817548036575317
H 1.4419366121292114 -0.7670965194702148 1.8706021308898926
H 5.828917026519775 0.15981413424015045 1.508984088897705
H 3.575796365737915 -4.199103832244873 -0.6692653894424438
H 6.838030815124512 -3.6417667865753174 -0.23568664491176605
H 6.963527202606201 -4.005577087402344 -4.388113975524902
H 7.873373985290527 0.1864781677722931 -5.542396545410156
H 4.421618938446045 3.415207624435425 -5.87846565246582
H 2.1346535682678223 1.0934900045394897 -4.7969183921813965
H 6.851050853729248 2.951619863510132 -1.7443872690200806
