15
Generated by QM7 dataset
C 1.960496425628662 -0.18173496425151825 0.10590025037527084
C 4.809447288513184 0.1028200015425682 0.07454969733953476
S 5.724792957305908 3.3469884395599365 -0.027098672464489937
O 5.007264137268066 4.402834892272949 -2.448310375213623
O 5.045436382293701 4.543279647827148 2.336344003677368
O 8.767989158630371 2.8833441734313965 -0.03856930881738663
C 10.32701301574707 5.0546393394470215 -0.11612366884946823
H 1.4374390840530396 -2.18119740486145 0.16899821162223816
H 1.11002516746521 0.656075119972229 -1.5836093425750732
H 1.1368781328201294 0.7544920444488525 1.7565760612487793
H 5.609935283660889 -0.8229379653930664 -1.5917540788650513
H 5.637090682983398 -0.724086344242096 1.7792905569076538
H 12.301077842712402 4.445977687835693 -0.11293003708124161
H 9.999505043029785 6.240971565246582 1.5446621179580688
H 9.973483085632324 6.138661861419678 -1.8403286933898926
