15
Generated by QM7 dataset
N 3.169637680053711 -1.4308061599731445 -0.8525499701499939
C 5.7124152183532715 -0.7678713202476501 -0.05000215396285057
C 5.775381088256836 1.9398794174194336 0.7449489235877991
C 7.328376770019531 3.6792023181915283 -0.25072887539863586
C 7.353264331817627 6.278879642486572 0.5733996033668518
C 8.905693054199219 8.018580436706543 -0.4023982882499695
H 3.1480002403259277 -3.2727599143981934 -1.4067121744155884
H 2.7262701988220215 -0.39962038397789 -2.4175832271575928
H 7.048583984375 -1.1467992067337036 -1.5847054719924927
H 6.252177715301514 -1.95460045337677 1.5567375421524048
H 4.47052526473999 2.4598753452301025 2.2467710971832275
H 8.637371063232422 3.1468098163604736 -1.743990421295166
H 6.040774345397949 6.829451560974121 2.057798385620117
H 10.251802444458008 7.576592445373535 -1.8850963115692139
H 8.856730461120605 9.953300476074219 0.278545618057251
