14
Generated by QM7 dataset
C 1.7478833198547363 0.19322450459003448 -0.052591077983379364
C 4.27047872543335 0.09569573402404785 -0.09117928892374039
C 5.770732402801514 2.320451498031616 -0.032087549567222595
C 7.069578647613525 4.178977966308594 0.02073029614984989
C 8.661125183105469 6.36506986618042 0.09507212042808533
C 9.031360626220703 7.875546932220459 -2.2906315326690674
N 7.505217552185059 8.854406356811523 -0.21981294453144073
H 0.6339653134346008 -1.5278246402740479 -0.0961492657661438
H 0.7371254563331604 1.9785054922103882 0.024150699377059937
H 5.234314441680908 -1.7145484685897827 -0.1670517921447754
H 10.235947608947754 6.2809014320373535 1.4065231084823608
H 8.004350662231445 7.33635139465332 -3.977344274520874
H 10.843192100524902 8.769350051879883 -2.6092960834503174
H 8.472662925720215 10.171979904174805 0.8025100231170654
