12
Generated by QM7 dataset
C 3.5022294521331787 -0.880593478679657 -2.1986775398254395
C 4.141958236694336 0.3987511098384857 -0.11070016026496887
C 6.233677387237549 2.208428382873535 0.11121038347482681
O 6.9533796310424805 3.870518207550049 -1.9114012718200684
C 5.614962100982666 4.998836040496826 0.15909604728221893
C 7.115877151489258 6.655294418334961 1.6797208786010742
N 8.300773620605469 7.988061428070068 2.956608772277832
H 1.9316591024398804 -2.199678897857666 -2.19476580619812
H 4.537345886230469 -0.6353448033332825 -3.95461106300354
H 3.0453503131866455 0.06553570181131363 1.5980846881866455
H 7.759990215301514 1.537556767463684 1.3102415800094604
H 3.690011501312256 5.590225696563721 -0.2016337811946869
