17
Generated by QM7 dataset
O 1.3379449844360352 -0.1551654189825058 -0.2285056859254837
C 4.025078773498535 -0.06190742924809456 -0.18664824962615967
C 4.969903945922852 2.623487949371338 0.025246741250157356
C 3.4480321407318115 4.638672828674316 0.32773521542549133
C 7.802698135375977 2.9461398124694824 -0.20131252706050873
C 9.203022956848145 1.7022274732589722 1.933737874031067
C 10.907971382141113 -0.14479081332683563 1.6375610828399658
H 0.8819918632507324 -1.9317158460617065 -0.27699604630470276
H 4.717625617980957 -0.9225832223892212 -1.9341535568237305
H 4.674010753631592 -1.180814266204834 1.4254204034805298
H 1.4105483293533325 4.423584461212158 0.46067744493484497
H 4.1845526695251465 6.548070907592773 0.4445580840110779
H 8.312262535095215 4.955901145935059 -0.20713287591934204
H 8.418843269348145 2.193593978881836 -2.03277850151062
H 8.788984298706055 2.3867807388305664 3.82930326461792
H 11.396295547485352 -0.878533661365509 -0.21550436317920685
H 11.863133430480957 -0.9601698517799377 3.260514497756958
