15
Generated by QM7 dataset
C 1.8597928285598755 0.11264657229185104 0.02666403539478779
C 4.688334941864014 0.05285564064979553 -0.014116254635155201
C 6.0602192878723145 2.1900413036346436 -0.01831144653260708
N 8.646517753601074 2.2710540294647217 -0.0868329182267189
C 9.756239891052246 0.10064681619405746 0.005177849438041449
N 8.64362621307373 -2.214380979537964 0.18094128370285034
C 5.94184684753418 -2.489203929901123 -0.06511995941400528
H 1.0675063133239746 -1.7987546920776367 -0.003684965893626213
H 1.1266357898712158 1.1167147159576416 -1.6273187398910522
H 1.1736899614334106 1.0468894243240356 1.7405322790145874
H 5.136143207550049 4.025060176849365 0.013284774497151375
H 11.837547302246094 0.0007369932136498392 -0.04318024218082428
H 9.707428932189941 -3.7738208770751953 -0.10975529253482819
H 5.245785236358643 -3.6581130027770996 1.4940930604934692
H 5.501786231994629 -3.452397346496582 -1.8431066274642944
