14
Generated by QM7 dataset
C 2.124354600906372 -0.11793781071901321 1.176052212715149
C 4.762109756469727 0.0 0.0
C 4.682269096374512 -1.0352298021316528 -2.706087827682495
C 7.286066055297852 -1.4589442014694214 -3.788863182067871
O 9.205876350402832 -1.6426255702972412 -2.5021862983703613
C 5.672995567321777 2.5722384452819824 0.0
N 6.399047374725342 4.622572422027588 0.0
H 2.143251895904541 0.6076414585113525 3.1158559322357178
H 1.432658076286316 -2.067889451980591 1.2375060319900513
H 0.7606525421142578 1.010682225227356 0.09943738579750061
H 6.019835948944092 -1.1741623878479004 1.1564745903015137
H 3.6841156482696533 0.26938045024871826 -3.970182418823242
H 3.704505681991577 -2.8594768047332764 -2.7761588096618652
H 7.359405994415283 -1.7368850708007812 -5.854465961456299
