19
Generated by QM7 dataset
N 1.805463194847107 -0.16310226917266846 -0.024679822847247124
C 4.542882919311523 -0.10873483866453171 0.34944814443588257
C 5.617569923400879 2.589831829071045 0.6869910359382629
C 4.473567485809326 3.904325485229492 3.036147356033325
N 5.3521013259887695 6.518402576446533 3.3401854038238525
C 8.48022174835205 2.422591209411621 0.871995210647583
C 10.077021598815918 3.505687713623047 -0.7670587301254272
H 1.251225471496582 -1.968943476676941 -0.4024171829223633
H 1.3512297868728638 0.8732235431671143 -1.5858582258224487
H 5.438991069793701 -1.0126475095748901 -1.286960244178772
H 4.999043941497803 -1.2676283121109009 2.005831003189087
H 5.106077671051025 3.701727867126465 -0.9918227791786194
H 4.94511079788208 2.837688446044922 4.7496185302734375
H 2.4094197750091553 3.9540629386901855 2.8924148082733154
H 7.276088237762451 6.532443046569824 3.442155122756958
H 4.7090840339660645 7.206300735473633 5.018885612487793
H 9.249755859375 1.350152611732483 2.4499542713165283
H 9.397721290588379 4.60662317276001 -2.360475778579712
H 12.107003211975098 3.3247084617614746 -0.5373247265815735
