18
Generated by QM7 dataset
C 1.7607523202896118 -0.6846100091934204 -0.25815549492836
C 4.636367321014404 -0.564876914024353 -0.10516326129436493
C 5.837307453155518 -2.473254680633545 -1.9060344696044922
N 5.503373622894287 1.9843257665634155 -0.669700026512146
C 7.7886576652526855 2.8783740997314453 0.19764645397663116
C 8.423643112182617 5.480243682861328 -0.7548322081565857
O 9.211451530456543 1.682271957397461 1.5806236267089844
H 0.9016638994216919 0.6692842841148376 1.051367998123169
H 1.07179594039917 -2.57352352142334 0.2294316440820694
H 1.0880286693572998 -0.22232627868652344 -2.1612420082092285
H 5.219272613525391 -1.0275952816009521 1.8288958072662354
H 5.343654155731201 -2.0593857765197754 -3.8738818168640137
H 5.205231666564941 -4.395049571990967 -1.4716242551803589
H 7.901662826538086 -2.435422420501709 -1.7626420259475708
H 4.63782262802124 2.941774368286133 -2.0802104473114014
H 9.251192092895508 5.3358683586120605 -2.641629219055176
H 9.779597282409668 6.370172500610352 0.526175320148468
H 6.730429649353027 6.663363456726074 -0.8264150619506836
