13
Generated by QM7 dataset
C 2.037710666656494 -0.15025211870670319 -0.00910848006606102
C 4.303699970245361 -0.00910848006606102 0.03887166827917099
C 6.99724006652832 0.16640928387641907 0.09293673187494278
N 8.241397857666016 -1.9379141330718994 0.11576462537050247
N 10.712932586669922 -1.231874704360962 0.23328669369220734
C 11.048377990722656 1.4133073091506958 -0.49726253747940063
C 8.48209285736084 2.5386393070220947 0.1298241913318634
H 0.03119937889277935 -0.3010144829750061 -0.050134435296058655
H 11.871996879577637 -2.442697763442993 -0.7246533036231995
H 11.421429634094238 1.5489518642425537 -2.529644012451172
H 12.589374542236328 2.324476480484009 0.5328649878501892
H 7.818836212158203 3.889585494995117 -1.2826138734817505
H 8.41706657409668 3.362276315689087 2.0250306129455566
