12
Generated by QM7 dataset
O 1.8416515588760376 -0.740659236907959 0.0472242571413517
C 4.375831127166748 -0.9046307802200317 0.9169518351554871
C 5.855203151702881 1.5100234746932983 0.3836522102355957
O 4.82556676864624 3.37331223487854 -0.553500771522522
C 8.585516929626465 1.497418999671936 1.0710400342941284
C 10.083086967468262 3.4454431533813477 0.4733008146286011
H 1.5607436895370483 1.037006139755249 -0.3872993588447571
H 5.28342866897583 -2.491774082183838 -0.04497548192739487
H 4.340171813964844 -1.24173903465271 2.9549081325531006
H 9.310416221618652 -0.1450553834438324 2.0560410022735596
H 9.36319637298584 5.0905632972717285 -0.5264587998390198
H 12.0734224319458 3.4375064373016357 0.9667083024978638
