15
Generated by QM7 dataset
C 2.568270206451416 0.48038727045059204 3.822878122329712
C 2.682957649230957 0.8554034233093262 0.9767427444458008
N 3.963606119155884 3.1964340209960938 0.2917926013469696
C 2.5495617389678955 5.400686264038086 0.05795789882540703
O 0.26253965497016907 5.606118202209473 0.3792869448661804
N 6.529079437255859 3.444819450378418 -0.08698409050703049
C 8.019789695739746 1.5721765756607056 0.3599550426006317
H 1.5960438251495361 -1.2880184650421143 4.2745795249938965
H 1.542488932609558 2.030076026916504 4.733121395111084
H 4.461076259613037 0.4089367389678955 4.652713775634766
H 0.7466685771942139 0.9195029139518738 0.24092118442058563
H 3.5952794551849365 -0.7461583614349365 0.03932520002126694
H 3.7329273223876953 7.037680149078369 -0.458844393491745
H 10.05903148651123 1.8169338703155518 0.018009090796113014
H 7.4465789794921875 -0.28805094957351685 1.0902396440505981
