19
Generated by QM7 dataset
C 0.5407073497772217 -0.732231080532074 0.9631745219230652
C 3.142860174179077 -0.6693031787872314 -0.2734433710575104
C 3.747175693511963 -3.2285971641540527 -1.4508938789367676
O 3.24269437789917 1.1536400318145752 -2.2640998363494873
C 3.23848032951355 3.702880620956421 -1.4025357961654663
C 3.8000690937042236 5.342406749725342 -3.63485050201416
C 5.662450790405273 7.052665710449219 -3.74112868309021
H 0.1637258678674698 1.0243827104568481 1.9901273250579834
H 0.38739386200904846 -2.29308819770813 2.3129870891571045
H -0.9519495368003845 -0.9288570880889893 -0.4586932361125946
H 4.595360279083252 -0.23937161266803741 1.1399017572402954
H 2.390484571456909 -3.6993656158447266 -2.9442121982574463
H 3.7253682613372803 -4.736957550048828 -0.035205598920583725
H 5.617494583129883 -3.190084457397461 -2.33974552154541
H 4.650124549865723 3.9609227180480957 0.09121707826852798
H 1.3690121173858643 4.192622184753418 -0.6662796139717102
H 2.585787773132324 5.082153797149658 -5.2718825340271
H 6.9321770668029785 7.368930339813232 -2.160637378692627
H 5.962747573852539 8.167698860168457 -5.437252521514893
