16
Generated by QM7 dataset
C 2.3445076942443848 0.22276091575622559 -1.5504069328308105
O 4.2132768630981445 0.45404449105262756 0.3761877715587616
C 5.595800399780273 2.6733956336975098 0.18324674665927887
C 4.129032611846924 5.100427627563477 0.3020727336406708
C 8.12580394744873 2.486860752105713 0.11597248911857605
C 10.010427474975586 4.5811309814453125 -0.04240545630455017
H 1.609782099723816 -1.7093517780303955 -1.4955859184265137
H 3.156749725341797 0.5515732765197754 -3.426337957382202
H 0.765641450881958 1.5143698453903198 -1.207497239112854
H 2.5560057163238525 4.9206767082214355 1.6362382173538208
H 3.3605377674102783 5.5745978355407715 -1.558173656463623
H 5.273507595062256 6.692200660705566 0.9553699493408203
H 8.937119483947754 0.5960196256637573 0.15565674006938934
H 9.155117988586426 6.429320812225342 -0.3793625235557556
H 11.319440841674805 4.21461820602417 -1.6021097898483276
H 11.106752395629883 4.675560474395752 1.7080856561660767
