20
Generated by QM7 dataset
C 1.8512324094772339 -0.8159081339836121 -0.2083422988653183
C 4.694759845733643 -1.231704592704773 -0.210761159658432
C 6.129118919372559 1.2803083658218384 -0.13226193189620972
C 8.993509292602539 0.8985647559165955 -0.029290754348039627
O 9.819319725036621 -0.40175577998161316 -2.2501914501190186
C 10.40503978729248 3.4400196075439453 0.1273108422756195
N 13.146087646484375 3.0087084770202637 -0.017593350261449814
H 0.861960768699646 -2.6309900283813477 -0.2902430295944214
H 1.2635276317596436 0.31002846360206604 -1.8418782949447632
H 1.2468223571777344 0.16659826040267944 1.509513258934021
H 5.2158331871032715 -2.2985873222351074 -1.9066014289855957
H 5.211977958679199 -2.38859486579895 1.427196741104126
H 5.518378257751465 2.376028299331665 1.5176957845687866
H 5.635730266571045 2.372947931289673 -1.8242660760879517
H 9.491754531860352 -0.2791692316532135 1.6019775867462158
H 11.608719825744629 0.0497564896941185 -2.4098353385925293
H 9.932589530944824 4.437454700469971 1.8776507377624512
H 9.871834754943848 4.64078950881958 -1.473154902458191
H 13.72247314453125 2.0570991039276123 1.5567185878753662
H 14.046711921691895 4.7125043869018555 0.04062911123037338
