18
Generated by QM7 dataset
C 1.9226640462875366 -0.03728429600596428 0.018651597201824188
C 4.793177127838135 -0.0015306781278923154 0.09624375402927399
C 5.8482489585876465 2.179270029067993 1.6511482000350952
C 8.492863655090332 1.2704062461853027 2.2895166873931885
O 10.186984062194824 1.8888568878173828 0.27966058254241943
C 8.199578285217285 -1.5971776247024536 2.5458202362060547
N 5.7862467765808105 -2.2690131664276123 1.341648817062378
H 1.2354273796081543 -1.633687138557434 -1.1049039363861084
H 1.1972359418869019 1.702510952949524 -0.8341062068939209
H 1.110403060913086 -0.19966846704483032 1.9157288074493408
H 5.530699253082275 0.09684846550226212 -1.8400074243545532
H 4.751092910766602 2.4428489208221436 3.3897340297698975
H 5.845130920410156 3.9472787380218506 0.5788419842720032
H 9.21651554107666 2.1453683376312256 4.016688346862793
H 9.719862937927246 0.8795352578163147 -1.1833842992782593
H 9.7723970413208 -2.6210312843322754 1.6729178428649902
H 8.08415412902832 -2.1335575580596924 4.539481163024902
H 6.011785984039307 -3.707793951034546 0.08297787606716156
