17
Generated by QM7 dataset
O 4.811016082763672 -0.7351223826408386 -2.9306628704071045
C 4.54764461517334 0.11944958567619324 -0.3903040289878845
C 6.176494121551514 2.46724534034729 0.030046645551919937
C 6.247340202331543 3.259002685546875 2.8217012882232666
C 6.3126301765441895 6.148035049438477 2.838406562805176
C 5.22726583480835 6.80715274810791 0.3219526410102844
C 5.145157337188721 4.802663326263428 -1.2138088941574097
H 3.695038318634033 -2.181424140930176 -3.127723455429077
H 5.159046649932861 -1.413741946220398 0.8579923510551453
H 2.5450830459594727 0.5058797001838684 -0.03342925384640694
H 8.091410636901855 2.138678550720215 -0.6942287087440491
H 7.8795342445373535 2.4521842002868652 3.8071367740631104
H 4.551027297973633 2.6029844284057617 3.8226892948150635
H 8.245007514953613 6.867586135864258 3.0000157356262207
H 5.17887020111084 6.908630847930908 4.389928340911865
H 4.657362461090088 8.69780445098877 -0.2058100700378418
H 4.513327598571777 4.842820167541504 -3.1591684818267822
