19
Generated by QM7 dataset
O 1.8767814636230469 -0.6906003952026367 -0.37915465235710144
C 4.49989128112793 -0.41196030378341675 0.12464633584022522
C 5.198220729827881 2.367656707763672 -0.1079600527882576
C 8.004142761230469 2.807528257369995 0.40203922986984253
C 8.688148498535156 5.60600471496582 0.15656380355358124
C 11.451589584350586 6.0374860763549805 0.6374613046646118
C 12.355558395385742 7.506785869598389 2.4881646633148193
H 1.4829436540603638 -2.478186845779419 -0.21469178795814514
H 5.555984020233154 -1.5567941665649414 -1.2375438213348389
H 4.881521701812744 -1.1135966777801514 2.033477544784546
H 4.046753883361816 3.4764723777770996 1.21146559715271
H 4.69899320602417 3.0441408157348633 -2.00250506401062
H 9.133273124694824 1.6887537240982056 -0.9317672848701477
H 8.476933479309082 2.1344077587127686 2.3069586753845215
H 7.5343194007873535 6.722341537475586 1.4672023057937622
H 8.243987083435059 6.271131992340088 -1.7545918226242065
H 12.775493621826172 5.1034321784973145 -0.6286929845809937
H 11.112761497497559 8.491313934326172 3.7902047634124756
H 14.376866340637207 7.759083271026611 2.735624313354492
