15
Generated by QM7 dataset
C 1.4262330532073975 0.40797296166419983 -0.1425231397151947
C 4.195740222930908 0.012377706356346607 -0.5091300010681152
C 5.97212028503418 1.6507891416549683 0.25836336612701416
N 8.543356895446777 1.3517589569091797 -0.049699798226356506
N 9.458627700805664 -0.8457091450691223 -1.2647559642791748
C 10.316733360290527 3.1229991912841797 0.7712350487709045
O 12.616850852966309 2.9321367740631104 0.5266855955123901
H 0.6346456408500671 -1.1432653665542603 0.9732467532157898
H 0.4706929922103882 0.4426683485507965 -1.9768803119659424
H 1.0095672607421875 2.182690382003784 0.8348810076713562
H 4.734463214874268 -1.7229200601577759 -1.468657374382019
H 5.402896881103516 3.3818917274475098 1.2074216604232788
H 10.37680721282959 -1.8744382858276367 0.0902722179889679
H 10.885766983032227 -0.26250186562538147 -2.4385592937469482
H 9.440844535827637 4.7745819091796875 1.6924009323120117
