18
Generated by QM7 dataset
C 1.396016240119934 0.6588718891143799 -1.1428496837615967
C 4.0286126136779785 0.298652321100235 -0.08675732463598251
C 5.687149524688721 -1.672048568725586 -1.3563131093978882
C 6.167140007019043 1.068375587463379 -1.8475852012634277
N 4.518221855163574 0.8801588416099548 2.6283633708953857
C 2.335153579711914 0.9420473575592041 4.299807071685791
C 4.001098155975342 -1.344691276550293 4.19649600982666
H 1.3640987873077393 0.4695969521999359 -3.204805374145508
H 0.6732149124145508 2.54215407371521 -0.6852335929870605
H 0.10316015034914017 -0.7680413722991943 -0.38824424147605896
H 4.886000156402588 -2.7951128482818604 -2.8697192668914795
H 7.0623602867126465 -2.6816914081573486 -0.22111685574054718
H 7.843289375305176 1.9127429723739624 -1.021888256072998
H 5.7036848068237305 1.8155733346939087 -3.6967389583587646
H 0.43482598662376404 0.7928723692893982 3.566650152206421
H 2.5093863010406494 2.180271625518799 5.922609806060791
H 5.312964916229248 -1.6577622890472412 5.734714031219482
H 3.2607603073120117 -3.034597873687744 3.3132190704345703
