19
Generated by QM7 dataset
C 2.0348761081695557 -0.17071786522865295 0.5839820504188538
C 4.809277534484863 0.19602128863334656 -0.0030991509556770325
C 6.216329574584961 2.2723388671875 1.4558639526367188
C 8.116430282592773 0.1559402048587799 2.0901505947113037
C 8.642889022827148 -0.20683053135871887 4.889685153961182
C 10.51300048828125 0.13464298844337463 0.49306735396385193
O 6.347533226013184 -1.7473353147506714 1.1839134693145752
H 1.3201438188552856 -1.8846616744995117 -0.3274328410625458
H 0.9281389713287354 1.4280282258987427 -0.12103696167469025
H 1.6990150213241577 -0.33871451020240784 2.6177053451538086
H 5.166265487670898 0.23572443425655365 -2.0462331771850586
H 5.1900763511657715 3.049621105194092 3.0756804943084717
H 6.935464859008789 3.823293924331665 0.296951562166214
H 6.889960289001465 -0.31428036093711853 5.98583984375
H 9.76085090637207 1.3684263229370117 5.639018535614014
H 9.701664924621582 -1.9560365676879883 5.229382514953613
H 10.0838623046875 0.2860856354236603 -1.5275979042053223
H 11.575762748718262 -1.6187583208084106 0.7747310400009155
H 11.744969367980957 1.720331072807312 0.9938069581985474
