17
Generated by QM7 dataset
C 1.889726161956787 0.0 0.0
C 4.618490695953369 0.0 0.0
C 6.86756706237793 0.0 0.0
C 9.57811450958252 0.008617151528596878 0.0970185399055481
C 11.030841827392578 -1.3748325109481812 -1.9290512800216675
C 11.040006637573242 1.4672778844833374 -1.8730965852737427
C 13.385685920715332 2.8572659492492676 -1.161482334136963
H 1.1451174020767212 1.9291458129882812 0.02199641242623329
H 1.1450039148330688 -0.9836969375610352 1.6596142053604126
H 1.1452118158340454 -0.9454488754272461 -1.6817806959152222
H 10.371081352233887 -0.05516110733151436 1.9904296398162842
H 9.99290943145752 -2.2921621799468994 -3.437676429748535
H 12.725850105285645 -2.3777856826782227 -1.362851619720459
H 10.002093315124512 2.442716598510742 -3.349086046218872
H 14.420160293579102 1.9163334369659424 0.36137232184410095
H 12.914539337158203 4.771426200866699 -0.5306540131568909
H 14.645774841308594 3.0116376876831055 -2.7939789295196533
