17
Generated by QM7 dataset
C 1.912950873374939 -0.03586700186133385 -0.19203397631645203
N 4.661406517028809 0.022979069501161575 -0.13475637137889862
C 5.594912052154541 2.618555784225464 0.0
C 8.323677062988281 2.618555784225464 0.0
C 10.572752952575684 2.618555784225464 0.0
C 13.301517486572266 2.618555784225464 0.0
N 14.247060775756836 5.180192947387695 -0.34188926219940186
H 1.2679873704910278 -1.9991601705551147 -0.2776763439178467
H 1.1648272275924683 0.9513259530067444 -1.8493993282318115
H 1.109495997428894 0.8072721362113953 1.5177901983261108
H 5.357619285583496 -0.7984659671783447 -1.7308379411697388
H 4.900286674499512 3.5296871662139893 1.725603461265564
H 4.897243976593018 3.716599941253662 -1.6125222444534302
H 14.025018692016602 1.4134584665298462 -1.518754005432129
H 14.02617073059082 1.8633455038070679 1.7845817804336548
H 13.5873384475708 5.864538192749023 -2.014958381652832
H 16.162260055541992 5.124861717224121 -0.49049732089042664
