12
Generated by QM7 dataset
N 2.1271324157714844 -0.05771223455667496 -0.6477225422859192
C 4.435905456542969 0.000453534274129197 0.08106925338506699
N 5.830806732177734 -2.0498993396759033 0.7793797254562378
C 8.448870658874512 -1.3052150011062622 1.089956283569336
C 8.257932662963867 1.5087006092071533 0.7708193063735962
C 5.933267593383789 2.3303346633911133 0.18753641843795776
H 1.4879136085510254 -1.87642240524292 -0.5251926779747009
H 5.48007345199585 -3.701765537261963 -0.11207965761423111
H 9.650018692016602 -2.14217472076416 -0.3691391050815582
H 9.142041206359863 -1.812870979309082 2.9686086177825928
H 9.871872901916504 2.74082088470459 0.9832811951637268
H 5.240153789520264 4.201352596282959 -0.1797318458557129
