12
Generated by QM7 dataset
C 2.0961976051330566 -0.25103121995925903 -1.078428864479065
O 4.541484355926514 -0.02496328204870224 0.010204521007835865
C 5.468886375427246 2.5294928550720215 0.0
C 4.524155616760254 3.8662474155426025 2.1832950115203857
C 3.7455127239227295 4.968014240264893 3.9827868938446045
C 8.197650909423828 2.5294928550720215 0.0
N 10.3727445602417 2.5294928550720215 0.0
H 1.5207948684692383 -2.232579231262207 -0.9681633710861206
H 2.1366000175476074 0.3070048987865448 -3.0692741870880127
H 0.7156203985214233 0.8894562721252441 -0.045674681663513184
H 4.829667568206787 3.4684977531433105 -1.7353354692459106
H 3.060732841491699 5.943850040435791 5.60725212097168
