12
Generated by QM7 dataset
C 1.4091498851776123 -0.11623705178499222 0.1180322915315628
N 4.0698466300964355 -0.04076139256358147 -0.5182195901870728
O 5.278723239898682 -2.357546806335449 0.11262767761945724
C 5.6139984130859375 2.0590455532073975 -0.2901485562324524
O 7.913946151733398 1.8767058849334717 -0.02108934335410595
C 4.464383602142334 4.538271903991699 -0.3266202509403229
C 3.5290634632110596 6.609525203704834 -0.34719938039779663
H 0.4275316298007965 1.5059038400650024 -0.6997466683387756
H 1.213355302810669 -0.058581508696079254 2.1752827167510986
H 0.5836608409881592 -1.8635345697402954 -0.6133862137794495
H 7.045428276062012 -1.8353019952774048 0.33943259716033936
H 2.723870038986206 8.453311920166016 -0.36220380663871765
