20
Generated by QM7 dataset
C 5.6613359451293945 -2.000615358352661 -1.2588977813720703
C 4.489667892456055 0.2670750021934509 0.05967755243182182
C 6.3016886711120605 2.43993878364563 0.1813948154449463
C 6.621562480926514 4.343611240386963 -1.9527673721313477
C 5.175562858581543 4.193037509918213 -4.363887786865234
N 5.270880699157715 4.998873710632324 0.36229828000068665
C 6.711438179016113 6.645656585693359 2.0420191287994385
H 4.330288410186768 -3.5831096172332764 -1.2897002696990967
H 7.37941837310791 -2.6199541091918945 -0.2842715084552765
H 6.172771453857422 -1.5474778413772583 -3.2119674682617188
H 3.973508358001709 -0.27195048332214355 1.991166591644287
H 2.730597496032715 0.7847843766212463 -0.8988293409347534
H 7.951268196105957 1.9897304773330688 1.3154950141906738
H 8.49660587310791 5.118096351623535 -2.250342607498169
H 3.1838862895965576 3.713840961456299 -4.082054138183594
H 6.015810966491699 2.7713589668273926 -5.608858108520508
H 5.247655868530273 6.014582633972168 -5.3414812088012695
H 6.0409440994262695 6.409233093261719 3.9849789142608643
H 6.40203332901001 8.620156288146973 1.5076991319656372
H 8.755006790161133 6.299912452697754 2.0310964584350586
