16
Generated by QM7 dataset
O 4.430028438568115 -1.8614747524261475 1.822300672531128
C 4.074986457824707 -0.10060901939868927 -0.17665159702301025
C 5.5670952796936035 2.3099634647369385 0.33264848589897156
C 8.442314147949219 2.0608785152435303 0.014210740104317665
C 9.77564811706543 0.5927314758300781 2.1049282550811768
O 9.388764381408691 -2.04604434967041 1.8435790538787842
H 3.244999885559082 -3.240880250930786 1.5215507745742798
H 2.057684898376465 0.3432309627532959 -0.2810022830963135
H 4.652278900146484 -0.9804466366767883 -1.9563390016555786
H 5.154246807098389 3.0044567584991455 2.2414419651031494
H 4.913590431213379 3.755849599838257 -1.002537488937378
H 9.228968620300293 3.97927188873291 -0.011187179014086723
H 8.852421760559082 1.2024515867233276 -1.8267604112625122
H 9.148542404174805 1.18914794921875 3.983712673187256
H 11.813169479370117 0.9215438365936279 1.9845904111862183
H 7.5785956382751465 -2.322303295135498 2.1434786319732666
