17
Generated by QM7 dataset
C 1.9625561237335205 -0.004988877102732658 0.15669609606266022
C 4.490952968597412 -0.009221863932907581 0.06640497595071793
C 6.139096736907959 2.3051257133483887 0.07150723785161972
C 8.36710262298584 1.5550745725631714 -1.6059081554412842
C 8.598480224609375 -1.2567623853683472 -1.2409265041351318
C 10.71495532989502 -2.59818434715271 -1.5913006067276
C 6.125849723815918 -2.3050124645233154 -0.3035845160484314
H 0.8907034993171692 -1.7510579824447632 0.04850926995277405
H 0.9063126444816589 1.7445573806762695 0.33355554938316345
H 6.790806293487549 2.687474012374878 2.001314401626587
H 5.1821393966674805 3.990213394165039 -0.6504059433937073
H 7.931672096252441 1.9619892835617065 -3.5906686782836914
H 10.084542274475098 2.5790414810180664 -1.0777674913406372
H 10.761215209960938 -4.620701789855957 -1.2509987354278564
H 12.446001052856445 -1.7064038515090942 -2.2366042137145996
H 5.298603057861328 -3.5964889526367188 -1.691739559173584
H 6.397799968719482 -3.280488967895508 1.5016520023345947
