14
Generated by QM7 dataset
C 1.579376459121704 -0.4589011073112488 3.3427555561065674
C 2.8618202209472656 -0.167089581489563 1.1797748804092407
C 4.753549575805664 1.870583176612854 0.6878414154052734
O 7.065062522888184 0.6615553498268127 0.015552446246147156
C 9.075240135192871 2.423365831375122 -0.4201616942882538
C 8.843049049377441 3.735818386077881 -2.86393666267395
N 8.653830528259277 4.812225341796875 -4.765681266784668
H 0.2352331131696701 -1.9944359064102173 3.5600738525390625
H 1.8415570259094238 0.8023021221160889 4.938629150390625
H 2.534576177597046 -1.4893120527267456 -0.3599550426006317
H 5.038538932800293 3.0535707473754883 2.363858461380005
H 4.08524751663208 3.0548555850982666 -0.8721842169761658
H 10.833157539367676 1.3315765857696533 -0.40874776244163513
H 9.18970012664795 3.7696635723114014 1.1490857601165771
