15
Generated by QM7 dataset
O 1.7962791919708252 0.998947024345398 -1.4466798305511475
C 3.643051862716675 0.6314708590507507 -0.0893651470541954
C 6.0231428146362305 2.2421789169311523 -0.08360148221254349
C 7.154975414276123 2.480057716369629 2.5768682956695557
C 6.431229591369629 5.108572483062744 3.547337293624878
C 5.7294416427612305 6.490509986877441 1.1959320306777954
C 5.499386310577393 4.931032657623291 -0.7776411771774292
H 3.7258217334747314 -1.080129623413086 1.1000663042068481
H 7.388356685638428 1.3614721298217773 -1.3641177415847778
H 9.22261905670166 2.346907615661621 2.4575510025024414
H 6.529759883880615 1.0017060041427612 3.8836896419525146
H 8.018769264221191 6.00564432144165 4.521566390991211
H 4.815967082977295 5.021059036254883 4.837283134460449
H 5.373738765716553 8.502690315246582 1.1294704675674438
H 4.926648139953613 5.509156227111816 -2.6547439098358154
