17
Generated by QM7 dataset
C 3.2189784049987793 -0.8693118095397949 -2.123126268386841
C 5.071949481964111 -0.31155914068222046 0.0008503767312504351
C 5.733844757080078 2.4447197914123535 0.09938069432973862
C 8.092204093933105 3.3416972160339355 -0.17599019408226013
C 8.781425476074219 6.078663349151611 -0.08456524461507797
N 10.590309143066406 6.496292591094971 1.9404085874557495
H 2.755976676940918 -2.8853282928466797 -2.156139612197876
H 4.017898082733154 -0.3658131957054138 -3.964513063430786
H 1.4558639526367188 0.18517425656318665 -1.8752130270004272
H 6.768148422241211 -1.4750823974609375 -0.2513713836669922
H 4.228394508361816 -0.8578978776931763 1.8118505477905273
H 4.180849075317383 3.7501425743103027 0.43739601969718933
H 9.64720344543457 2.0367846488952637 -0.5070701837539673
H 7.117974758148193 7.274935245513916 0.20679272711277008
H 9.633805274963379 6.621543884277344 -1.8907276391983032
H 9.74425983428955 6.067721843719482 3.6160664558410645
H 11.012605667114258 8.370901107788086 2.0226495265960693
