18
Generated by QM7 dataset
C 5.1969170570373535 -1.534873366355896 -2.350252389907837
C 4.3994903564453125 0.11075685173273087 -0.126479372382164
C 5.796924114227295 2.614152669906616 -0.05374380946159363
C 4.522171497344971 4.788036823272705 -0.39943140745162964
C 8.547609329223633 2.512296438217163 0.3610888719558716
C 9.696808815002441 3.9320664405822754 2.552793264389038
N 9.46932315826416 1.1934187412261963 2.6059322357177734
H 4.095263481140137 -3.285156488418579 -2.369262933731079
H 7.196284770965576 -2.0518078804016113 -2.2319555282592773
H 4.884507656097412 -0.5617210865020752 -4.14891242980957
H 4.7132415771484375 -0.9165171980857849 1.6462538242340088
H 2.3524067401885986 0.4232986569404602 -0.24815884232521057
H 2.4957990646362305 4.813661575317383 -0.7098000049591064
H 5.483683109283447 6.597903251647949 -0.36711710691452026
H 9.675416946411133 2.304464340209961 -1.339948058128357
H 8.472152709960938 4.950364589691162 3.8378260135650635
H 11.58029842376709 4.699862480163574 2.337345600128174
H 11.162328720092773 0.3457631766796112 2.237889289855957
