16
Generated by QM7 dataset
N 1.9347583055496216 0.020862575620412827 0.23081114888191223
C 4.660953044891357 0.03662289306521416 -0.13789331912994385
C 5.867542743682861 1.996968150138855 1.6524521112442017
C 7.877909183502197 -0.04008109122514725 2.3174846172332764
C 5.873438835144043 -2.0347626209259033 1.5188106298446655
C 10.157750129699707 0.012339911423623562 0.7883181571960449
C 12.028258323669434 0.05336586758494377 -0.49883100390434265
H 1.0542404651641846 -1.451819896697998 -0.6468910574913025
H 1.064085841178894 1.610934853553772 -0.42288291454315186
H 5.308524131774902 0.10610812157392502 -2.1005818843841553
H 4.720498085021973 2.552736520767212 3.2902209758758545
H 6.564360618591309 3.7186408042907715 0.7421332597732544
H 8.322183609008789 -0.10556010156869888 4.340927600860596
H 6.576171398162842 -3.690502882003784 0.4974893033504486
H 4.728850841522217 -2.701061248779297 3.1165931224823
H 13.678668975830078 0.08825021237134933 -1.649749755859375
