15
Generated by QM7 dataset
C 1.5502746105194092 0.15047889947891235 -0.28302428126335144
C 3.635889768600464 0.639407753944397 1.0620827674865723
C 5.516204833984375 2.492907762527466 0.12513767182826996
C 4.7518110275268555 5.327213764190674 0.362714022397995
C 7.2815117835998535 5.963125228881836 1.680552363395691
C 7.62379789352417 3.099604368209839 2.0825159549713135
O 9.00146484375 1.8498907089233398 3.4211602210998535
H 0.17806889116764069 -1.2227661609649658 0.3853151500225067
H 1.1553030014038086 1.0832666158676147 -2.067530393600464
H 3.9907615184783936 -0.34432700276374817 2.8325672149658203
H 6.31136417388916 1.9838155508041382 -1.7200475931167603
H 3.100039005279541 5.692516326904297 1.5612916946411133
H 4.459734916687012 6.29312801361084 -1.4431838989257812
H 8.723505020141602 6.7823405265808105 0.44756272435188293
H 7.11678409576416 7.062095642089844 3.4189114570617676
