17
Generated by QM7 dataset
O 4.6652045249938965 -1.9616680145263672 2.366220474243164
C 2.780202865600586 -0.09223753213882446 2.7401785850524902
C 3.00126314163208 1.9440557956695557 0.7271665930747986
C 5.544475555419922 3.302069664001465 0.8134326338768005
O 5.491808891296387 5.270256996154785 -1.0402753353118896
C 7.599363803863525 6.740728855133057 -1.2639811038970947
C 9.76347827911377 6.638985633850098 0.039665352553129196
H 4.3491291999816895 -3.301767349243164 3.584035634994507
H 3.0075747966766357 0.7101212739944458 4.631964206695557
H 0.9253044128417969 -0.99868243932724 2.6241304874420166
H 1.4671645164489746 3.3227055072784424 0.949662983417511
H 2.7651796340942383 1.1073228120803833 -1.156795859336853
H 7.075531482696533 1.975576400756836 0.38418132066726685
H 5.830655574798584 4.120472431182861 2.694711685180664
H 7.2985382080078125 8.123705863952637 -2.7482287883758545
H 10.108920097351074 5.275132656097412 1.5259349346160889
H 11.272594451904297 7.96213436126709 -0.38062864542007446
