13
Generated by QM7 dataset
C 1.373263955116272 -2.344658851623535 0.9343184232711792
O -1.2021304368972778 -2.9419634342193604 0.24863126873970032
C -2.907041311264038 -1.0255354642868042 -0.023545987904071808
C -2.341200590133667 1.4346989393234253 -0.07950077950954437
C 0.24815884232521057 2.349496603012085 0.08976199477910995
O 2.1756794452667236 1.5026534795761108 -1.6303801536560059
C 2.1403982639312744 0.3736366629600525 0.8312905430793762
H 2.6177430152893066 -3.4794204235076904 -0.2716481387615204
H 1.6237094402313232 -3.02889084815979 2.874840259552002
H -4.8025689125061035 -1.7576720714569092 -0.25690826773643494
H -3.8400180339813232 2.8115155696868896 -0.3373350203037262
H 0.4664599895477295 4.2273173332214355 0.8752644658088684
H 3.6717946529388428 0.8401344418525696 2.09676456451416
