17
Generated by QM7 dataset
C 2.0049993991851807 0.00689750025048852 0.31172922253608704
C 4.524193286895752 -0.005442411173135042 0.12073460221290588
C 6.145181655883789 2.32680082321167 0.013511542230844498
C 8.319897651672363 1.4938095808029175 -1.6681746244430542
C 8.743252754211426 -1.271823525428772 -0.9795584678649902
C 6.153099536895752 -2.1873579025268555 -0.23767085373401642
C 5.545382499694824 -4.622799396514893 0.07258438318967819
H 0.8966561555862427 -1.7174019813537598 0.276750385761261
H 0.9706011414527893 1.7701631784439087 0.48949575424194336
H 6.828600883483887 2.7977962493896484 1.9117414951324463
H 5.163449764251709 3.9684627056121826 -0.7695720791816711
H 7.788033962249756 1.659765362739563 -3.6656906604766846
H 10.01770305633545 2.635997772216797 -1.373263955116272
H 9.532421112060547 -2.3254592418670654 -2.5771517753601074
H 10.038773536682129 -1.4228503704071045 0.632151186466217
H 3.67262601852417 -5.21447229385376 0.6526169180870056
H 6.9359564781188965 -6.099544525146484 -0.22361129522323608
