17
Generated by QM7 dataset
C 5.395413875579834 -1.0673362016677856 2.6010191440582275
C 4.663371562957764 0.2124619036912918 0.14191843569278717
C 5.761963844299316 2.829713821411133 0.03169070556759834
N 7.958317279815674 3.268016815185547 -1.0150285959243774
C 8.319405555725098 6.045139312744141 -0.6985939741134644
C 5.751494884490967 7.118655204772949 0.10597584396600723
N 4.50845193862915 4.869351863861084 1.0187702178955078
H 4.606093883514404 -2.9767343997955322 2.6836001873016357
H 4.692341327667236 -0.004062911029905081 4.231266975402832
H 7.452172756195068 -1.2066279649734497 2.7827351093292236
H 2.6033623218536377 0.3332720994949341 -0.013058007694780827
H 5.364082336425781 -0.8847509026527405 -1.4666543006896973
H 9.753349304199219 6.370002269744873 0.7603691220283508
H 8.97039794921875 6.898955345153809 -2.465393304824829
H 4.732875823974609 7.889341831207275 -1.5217397212982178
H 5.924593925476074 8.572553634643555 1.5630302429199219
H 2.5949342250823975 4.831217288970947 1.0236079692840576
