13
Generated by QM7 dataset
O 1.9279552698135376 -0.1525764912366867 0.6557538509368896
C 4.186688423156738 -0.006311685312539339 0.1645195633172989
C 5.486574172973633 2.423271417617798 -0.019029542803764343
C 7.920295715332031 2.7421247959136963 -0.5262698531150818
O 8.742742538452148 5.212696075439453 -0.5824325084686279
C 6.442019462585449 6.672887325286865 -0.3441758155822754
C 4.2783966064453125 4.900910377502441 0.3819703459739685
H 5.357543468475342 -1.6964260339736938 -0.16659826040267944
H 9.369375228881836 1.352117896080017 -0.8626788854598999
H 6.075866222381592 7.590784072875977 -2.1654748916625977
H 6.7297492027282715 8.150218963623047 1.0763312578201294
H 2.6204075813293457 5.210749626159668 -0.8132814168930054
H 3.7331161499023438 5.16061544418335 2.3610239028930664
