11
Generated by QM7 dataset
C 1.7210114002227783 0.04832029715180397 -0.009202966466546059
C 3.9899866580963135 0.06047123670578003 -0.0034015069250017405
C 6.690556526184082 0.07156392931938171 0.003458198858425021
C 8.099233627319336 2.2595643997192383 0.0054802056401968
S 11.279889106750488 1.6569496393203735 0.014059562236070633
C 10.776975631713867 -1.5389552116394043 0.015155603177845478
C 8.24007511138916 -2.1294946670532227 0.009051788598299026
H -0.29054540395736694 0.03726539760828018 -0.014267432503402233
H 7.427454948425293 4.189730644226074 0.0021542878821492195
H 12.362947463989258 -2.8272571563720703 0.020220069214701653
H 7.53609561920166 -4.051194667816162 0.008598254062235355
