18
Generated by QM7 dataset
N 1.9094170331954956 0.09454299509525299 -0.1180511936545372
C 4.655396938323975 0.04675182327628136 0.07035450637340546
C 5.679080486297607 2.1301560401916504 1.7699174880981445
C 8.37537956237793 1.2511121034622192 2.255312442779541
C 8.162823677062988 -1.6088372468948364 2.5961625576019287
C 5.69276237487793 -2.3863840103149414 1.2924214601516724
O 6.112640380859375 -4.300487518310547 -0.5499669909477234
H 1.3245657682418823 -1.4728903770446777 -1.0841169357299805
H 1.3458251953125 1.620251178741455 -1.1475929021835327
H 5.432263374328613 0.24666595458984375 -1.8426908254623413
H 4.632399082183838 2.2347524166107178 3.553459882736206
H 5.615623474121094 3.9919331073760986 0.8700488209724426
H 9.561995506286621 1.673579216003418 0.608869731426239
H 9.22089958190918 2.1756606101989746 3.8990719318389893
H 9.826802253723145 -2.5877530574798584 1.8508923053741455
H 8.034171104431152 -2.0488409996032715 4.617923736572266
H 4.376681327819824 -3.150022268295288 2.6995303630828857
H 7.389509677886963 -3.6890478134155273 -1.7210869789123535
