19
Generated by QM7 dataset
C 4.1485724449157715 -0.8772108554840088 2.6571438312530518
C 4.226259231567383 0.3354641795158386 0.0455612987279892
C 5.54827356338501 2.8731396198272705 0.05374380946159363
C 4.180301189422607 5.013802528381348 0.13435952365398407
C 8.294045448303223 3.0377535820007324 -0.09042339771986008
C 9.926372528076172 1.100614309310913 -0.2225341498851776
C 12.729989051818848 1.4295588731765747 -0.38735607266426086
H 3.172736883163452 -2.6986422538757324 2.5628087520599365
H 3.1248321533203125 0.3214802145957947 3.999265193939209
H 6.04406213760376 -1.208290934562683 3.4075920581817627
H 2.273472785949707 0.5578282475471497 -0.6211341023445129
H 5.114014625549316 -0.9514204263687134 -1.3153250217437744
H 2.131195306777954 4.966937065124512 0.22640809416770935
H 5.050708770751953 6.871403217315674 0.12245425581932068
H 9.069778442382812 4.946377277374268 -0.10077909380197525
H 9.27161979675293 -0.8427800536155701 -0.21909484267234802
H 13.290670394897461 3.419875144958496 -0.36900681257247925
H 13.433930397033691 0.5779916644096375 -2.135673999786377
H 13.643595695495605 0.48715248703956604 1.2093113660812378
