11
Generated by QM7 dataset
O 4.809031963348389 -2.2766287326812744 0.09080134332180023
C 3.9703900814056396 -0.1138748973608017 -0.01846262440085411
C 5.423117160797119 2.2025136947631836 0.00455424003303051
C 4.534284591674805 4.654036521911621 -0.11563234031200409
C 6.528436660766602 6.465735912322998 -0.04648726433515549
C 8.865253448486328 5.333789825439453 0.12377706170082092
S 8.647008895874023 2.1100871562957764 0.19917713105678558
H 1.9070171117782593 0.16538883745670319 -0.14908050000667572
H 2.5495240688323975 5.1404709815979 -0.24723286926746368
H 6.264082908630371 8.494829177856445 -0.11790001392364502
H 10.695717811584473 6.239516735076904 0.20800215005874634
