19
Generated by QM7 dataset
C 5.68074369430542 -0.823523759841919 2.181424140930176
O 5.162221431732178 0.6018966436386108 -0.03501662611961365
C 5.714702129364014 3.260911464691162 0.09664059430360794
C 4.625274658203125 4.382085800170898 -2.3538050651550293
C 4.367440700531006 4.525024890899658 2.3398399353027344
C 8.561177253723145 3.5932953357696533 0.019010644406080246
C 10.020423889160156 4.896488189697266 1.6289061307907104
H 5.485780715942383 -2.8258020877838135 1.7082746028900146
H 4.306648254394531 -0.39157015085220337 3.662459373474121
H 7.6032185554504395 -0.5087709426879883 2.869076728820801
H 5.430411338806152 3.4604854583740234 -4.026949882507324
H 4.980599880218506 6.416603088378906 -2.497102975845337
H 2.579230546951294 4.069393157958984 -2.455793619155884
H 5.126864910125732 3.8882439136505127 4.157416343688965
H 2.3516886234283447 4.047698974609375 2.344186305999756
H 4.544980525970459 6.586734771728516 2.2731704711914062
H 9.493379592895508 2.627758741378784 -1.5436038970947266
H 9.260356903076172 5.907473087310791 3.241258382797241
H 12.053277969360352 4.973078727722168 1.3544423580169678
