13
Generated by QM7 dataset
C 1.889726161956787 0.0 0.0
C 4.138802528381348 0.0 0.0
C 6.79575777053833 0.0 0.0
C 8.228321075439453 -2.063750982284546 -0.12676282227039337
C 10.931139945983887 -1.34395432472229 -0.08050233125686646
O 10.985507011413574 1.374775767326355 -0.03322138637304306
C 8.419769287109375 2.281730890274048 0.14354360103607178
H -0.12322904169559479 -0.004705417901277542 -0.0008881712565198541
H 7.556277751922607 -3.9866230487823486 -0.23995742201805115
H 11.885281562805176 -2.0576093196868896 1.6076089143753052
H 11.931806564331055 -1.9965335130691528 -1.7656844854354858
H 8.081281661987305 3.590082883834839 -1.420922875404358
H 8.202223777770996 3.2812070846557617 1.9407864809036255
