13
Generated by QM7 dataset
C 2.0653762817382812 -0.1846073418855667 0.5010609030723572
C 4.5065999031066895 0.02891281060874462 -0.08917617797851562
C 6.086826801300049 2.39874267578125 -0.22822222113609314
N 8.502520561218262 1.3958462476730347 -0.9843016266822815
C 8.44809627532959 -1.206703543663025 -1.250242829322815
O 10.215141296386719 -2.5457255840301514 -1.859036922454834
N 6.015130519866943 -1.9764267206192017 -0.6965152621269226
H 1.1209288835525513 -2.004300117492676 0.534584641456604
H 0.9430111646652222 1.4681471586227417 0.9644784331321716
H 6.294696807861328 3.3257291316986084 1.6058893203735352
H 5.425857067108154 3.717677116394043 -1.673201322555542
H 10.100113868713379 2.390446901321411 -1.293423056602478
H 5.495701313018799 -3.809215545654297 -0.7662272453308105
