19
Generated by QM7 dataset
C 1.7337859869003296 -0.16002200543880463 0.029139576479792595
C 4.5932817459106445 0.13214854896068573 0.18993636965751648
O 5.752723217010498 -1.255552887916565 -1.8393460512161255
C 5.591416358947754 2.8909974098205566 0.13946178555488586
C 4.898869514465332 4.316323280334473 -2.2811262607574463
C 4.7356157302856445 4.3904194831848145 2.4549810886383057
O 8.304231643676758 2.7725305557250977 0.22211840748786926
H 0.7774522304534912 0.7720665335655212 1.6043585538864136
H 1.2261866331100464 -2.1668167114257812 0.061699558049440384
H 0.9906700253486633 0.5940731763839722 -1.7469573020935059
H 5.26205587387085 -0.7827245593070984 1.9257632493972778
H 4.812660217285156 -0.9037426114082336 -3.381192445755005
H 5.606231689453125 3.337634325027466 -3.9627180099487305
H 5.7823920249938965 6.19089412689209 -2.3000991344451904
H 2.8557541370391846 4.571322917938232 -2.4747097492218018
H 5.267309188842773 3.412184000015259 4.201635837554932
H 2.6907243728637695 4.6992387771606445 2.4708735942840576
H 5.668082237243652 6.23942232131958 2.5196852684020996
H 8.77048397064209 1.286601185798645 -0.7755625247955322
