15
Generated by QM7 dataset
C 2.571728229522705 -0.8916105628013611 -0.8901365995407104
C 4.437171459197998 -0.00965650100260973 0.5772168636322021
C 5.7718281745910645 2.4535069465637207 0.17653821408748627
N 8.475421905517578 1.9858753681182861 -0.19923382997512817
N 9.80091381072998 4.252356052398682 -0.5555605888366699
C 11.763507843017578 4.900343418121338 1.010663390159607
O 12.982531547546387 6.852090358734131 0.7761861085891724
H 1.6774343252182007 -2.692085027694702 -0.4766645133495331
H 1.8930898904800415 0.14715297520160675 -2.5242583751678467
H 5.03530740737915 -1.120248556137085 2.201568841934204
H 5.483985424041748 3.6366078853607178 1.85300874710083
H 4.9853997230529785 3.4647562503814697 -1.453161597251892
H 8.695272445678711 0.8838059902191162 -1.7741882801055908
H 9.369224548339844 5.476010799407959 -1.9735733270645142
H 12.140602111816406 3.4950485229492188 2.5018839836120605
