16
Generated by QM7 dataset
C 1.6363517045974731 -2.3299944400787354 1.5919052362442017
C 2.1812920570373535 -0.6737629771232605 -0.6443777084350586
N 1.9592113494873047 2.0990700721740723 -0.5324870347976685
C -0.35133787989616394 3.1107349395751953 0.6137641668319702
C -2.690497636795044 1.553619384765625 0.21463508903980255
C -2.5774919986724854 -0.9197863936424255 -0.3424939513206482
C -0.17903265357017517 -2.2778003215789795 -0.6075658202171326
H 2.7830185890197754 -4.009450912475586 1.8321651220321655
H 1.0790525674819946 -1.4650479555130005 3.360764503479004
H 3.684096574783325 -1.3112053871154785 -1.8954142332077026
H 3.49176025390625 2.886140823364258 0.32423922419548035
H -0.06906948983669281 3.3477821350097656 2.651947259902954
H -0.6683016419410706 4.997021675109863 -0.17515870928764343
H -4.506373405456543 2.478602647781372 0.44223371148109436
H -4.314603805541992 -1.983739972114563 -0.5992699265480042
H -0.2252931445837021 -3.90545916557312 -1.850873351097107
