12
Generated by QM7 dataset
C 1.7493761777877808 0.1003633514046669 -0.008163616992533207
C 4.018370151519775 0.041044849902391434 -0.0023621576838195324
C 6.708603382110596 -0.03499772772192955 0.004724315367639065
C 8.26220417022705 2.050938606262207 0.009524219669401646
N 10.71495532989502 1.213355302810669 0.016157157719135284
C 10.739861488342285 -1.378555178642273 0.015571343712508678
C 8.269347190856934 -2.2044789791107178 0.008654945529997349
H -0.26110345125198364 0.15134815871715546 -0.013171391561627388
H 7.840284824371338 4.050817012786865 0.008862815797328949
H 12.264776229858398 2.333962917327881 0.020786987617611885
H 12.505414009094238 -2.4087960720062256 0.020352350547909737
H 7.661440849304199 -4.156811714172363 0.006292787846177816
