16
Generated by QM7 dataset
C 1.9480997323989868 0.012491089291870594 -0.09798230230808258
C 4.764642238616943 -0.021448392421007156 -0.02284678816795349
C 6.327596664428711 -1.41527259349823 -1.969548225402832
C 5.159595012664795 -2.8536376953125 -4.091918468475342
C 6.262892723083496 1.4309195280075073 -1.9634443521499634
O 8.49694538116455 2.6702396869659424 -1.0593615770339966
H 1.2228039503097534 1.3858495950698853 1.2691023349761963
H 1.1978029012680054 -1.8479442596435547 0.4056108295917511
H 1.2088011503219604 0.5315610766410828 -1.958984613418579
H 5.444660186767578 -0.05769333988428116 1.9097005128860474
H 8.032564163208008 -2.3437139987945557 -1.3121691942214966
H 3.5316712856292725 -1.8817137479782104 -4.916954040527344
H 4.538290500640869 -4.7128448486328125 -3.4313080310821533
H 6.549658298492432 -3.140951633453369 -5.596612930297852
H 5.2351837158203125 2.370302438735962 -3.470935583114624
H 9.314270973205566 1.7367527484893799 0.29483506083488464
