14
Generated by QM7 dataset
O 1.9221727848052979 -0.19433943927288055 0.18952062726020813
C 4.209818363189697 -0.026191603392362595 0.07613706588745117
C 6.145559310913086 -2.1559319496154785 0.10703408718109131
N 8.605547904968262 -0.6867453455924988 -0.07275445759296417
C 8.083189964294434 1.3612642288208008 -2.1003549098968506
C 6.067967414855957 2.254103183746338 -0.14097356796264648
C 8.239054679870605 1.5868219137191772 1.738321304321289
H 5.917866230010986 -3.3871450424194336 -1.5347977876663208
H 6.061126708984375 -3.2046730518341064 1.8835656642913818
H 7.37333345413208 0.6400502324104309 -3.9056293964385986
H 9.671353340148926 2.6423661708831787 -2.470193386077881
H 5.308959007263184 4.157473087310791 -0.22119244933128357
H 9.845813751220703 2.8946635723114014 1.826306939125061
H 7.682133674621582 1.083153247833252 3.666938066482544
