13
Generated by QM7 dataset
C 1.736374855041504 -0.15782992541790009 0.32507067918777466
C 4.226108074188232 -0.0320686511695385 -0.10512546449899673
C 5.693593502044678 2.3834547996520996 -0.34357109665870667
N 8.154111862182617 2.0507497787475586 0.8533058166503906
N 9.505152702331543 -0.05920511856675148 0.30074992775917053
C 8.190356254577637 -2.0693256855010986 -0.18831120431423187
O 5.618136882781982 -2.301875352859497 -0.32412582635879517
H 0.593997597694397 1.5288829803466797 0.5229817032814026
H 0.7951211929321289 -1.9728174209594727 0.4942200779914856
H 4.699881076812744 3.9589574337005615 0.5570534467697144
H 5.94636344909668 2.8416378498077393 -2.3463218212127686
H 9.238550186157227 3.632526159286499 0.6464942097663879
H 9.085973739624023 -3.9048545360565186 -0.5752326250076294
