14
Generated by QM7 dataset
C 1.9653908014297485 0.009637603536248207 0.12923836708068848
C 4.492218971252441 0.04234876111149788 0.07483315467834473
C 6.113906383514404 2.342013120651245 0.11514101177453995
C 8.291494369506836 1.4429570436477661 -1.507642388343811
O 8.632609367370605 -1.1784143447875977 -0.902457594871521
C 6.184412002563477 -2.1918933391571045 -0.2883343994617462
H 0.9184446930885315 -1.7504533529281616 -0.004535342566668987
H 0.8793462514877319 1.7414581775665283 0.30912140011787415
H 6.754580497741699 2.698018789291382 2.0514867305755615
H 5.217382907867432 4.042181015014648 -0.6398612856864929
H 7.859994411468506 1.5977445840835571 -3.528855800628662
H 10.041513442993164 2.4741051197052 -1.1261823177337646
H 5.560953617095947 -3.4029054641723633 -1.843522310256958
H 6.3720808029174805 -3.304053783416748 1.4432783126831055
