18
Generated by QM7 dataset
O 1.5675277709960938 4.871090412139893 1.066145658493042
C 3.6080353260040283 3.354339361190796 1.9747827053070068
C 6.012485027313232 4.950118541717529 2.178910970687866
N 6.788500785827637 5.830995559692383 -0.3373728096485138
C 9.006075859069824 7.481652736663818 -0.23967397212982178
C 11.581526756286621 6.345737934112549 -0.5959629416465759
C 10.450299263000488 7.958071231842041 -2.6355254650115967
H 0.1409357786178589 3.737764835357666 0.821463942527771
H 3.8802125453948975 1.7599397897720337 0.6819265484809875
H 3.084581136703491 2.6192171573638916 3.836106300354004
H 7.521771430969238 3.817190170288086 3.030459403991699
H 5.639887809753418 6.584013938903809 3.395535469055176
H 5.270805358886719 6.744318962097168 -1.1158454418182373
H 8.855917930603027 9.082212448120117 1.0447540283203125
H 11.718361854553223 4.33055305480957 -0.9400631785392761
H 13.129741668701172 7.11959981918335 0.4984719455242157
H 11.23011302947998 9.828068733215332 -2.925881862640381
H 9.82636833190918 7.030896186828613 -4.351699352264404
