14
Generated by QM7 dataset
C 1.9823226928710938 0.12273771315813065 0.04437077045440674
C 4.856236934661865 -0.032257623970508575 -0.03548905625939369
C 5.806183338165283 -2.304124116897583 -1.6005979776382446
N 6.477433204650879 -1.2916655540466309 -4.152276515960693
C 6.490018844604492 1.1344026327133179 -3.8099524974823
N 5.8880462646484375 2.0529417991638184 -1.4880081415176392
H 1.3738497495651245 1.8364169597625732 1.0293338298797607
H 1.19273841381073 -1.5088896751403809 1.0398218631744385
H 1.1649216413497925 0.17394928634166718 -1.8562968969345093
H 5.625601291656494 -0.06767109036445618 1.8844727277755737
H 4.386753559112549 -3.799880266189575 -1.768802523612976
H 7.514685153961182 -3.113210439682007 -0.753547191619873
H 6.8939290046691895 2.5426831245422363 -5.2885308265686035
H 5.018092155456543 3.753941059112549 -1.3895344734191895
