13
Generated by QM7 dataset
C 1.9511233568191528 -0.02394283004105091 0.11498983204364777
C 4.771709442138672 0.03915512561798096 -0.018273651599884033
C 6.087356090545654 2.3152735233306885 -0.10521995276212692
N 8.639695167541504 2.4425277709960938 -0.2537713348865509
C 9.837404251098633 0.18955843150615692 -0.32246285676956177
C 8.547457695007324 -2.0844812393188477 -0.24770529568195343
N 5.998028755187988 -2.2099969387054443 -0.09665948897600174
H 1.156172275543213 1.8593204021453857 0.43639445304870605
H 1.3436142206192017 -1.2460476160049438 1.6707258224487305
H 1.1801528930664062 -0.7633737921714783 -1.656893014907837
H 5.122348308563232 4.121927261352539 -0.056276045739650726
H 11.880481719970703 0.2582310736179352 -0.44229039549827576
H 9.533214569091797 -3.8779826164245605 -0.30908361077308655
