15
Generated by QM7 dataset
C 1.369503378868103 2.531987428665161 -1.0633488893508911
C -0.8654756546020508 1.8336012363433838 0.5369467735290527
C -2.796170949935913 -0.006576247047632933 -0.39493387937545776
C -1.5605169534683228 -2.550865650177002 0.09992871433496475
C 1.269215703010559 -2.0140135288238525 -0.042367659509181976
N 1.6140906810760498 0.5925803184509277 0.8880956768989563
H 1.4271211624145508 1.9602129459381104 -3.0260183811187744
H 2.3119475841522217 4.30526876449585 -0.6649379134178162
H -1.4806193113327026 3.0607705116271973 2.0499937534332275
H -4.593772888183594 0.1694139540195465 0.6127625703811646
H -3.1520254611968994 0.2706654667854309 -2.4159770011901855
H -2.04791522026062 -3.1970574855804443 2.008476495742798
H -2.1695001125335693 -3.998528242111206 -1.242702841758728
H 2.318542718887329 -3.339656352996826 1.1506164073944092
H 1.975935459136963 -2.234147548675537 -1.9790345430374146
