17
Generated by QM7 dataset
C 3.7481961250305176 -0.944655179977417 -2.7686188220977783
O 4.102595329284668 0.013379260897636414 -0.28621792793273926
C 5.740477561950684 2.1945011615753174 -0.08316684514284134
C 4.647214412689209 4.776547431945801 -0.832840085029602
O 5.520834922790527 5.910987854003906 1.5027669668197632
C 5.952391624450684 3.4094250202178955 2.5601820945739746
C 8.503314018249512 3.2630467414855957 3.849768877029419
H 2.486860752105713 -2.5767550468444824 -2.670088529586792
H 5.559366226196289 -1.5430936813354492 -3.5639290809631348
H 2.887388229370117 0.49635547399520874 -3.9743776321411133
H 7.58526611328125 1.8168960809707642 -0.9512881636619568
H 2.5877721309661865 4.875172138214111 -0.9916337728500366
H 5.521931171417236 5.6511125564575195 -2.487597703933716
H 4.406822681427002 2.897592782974243 3.8450825214385986
H 10.024147033691406 3.9082937240600586 2.6048362255096436
H 8.919110298156738 1.318235158920288 4.4169135093688965
H 8.527256965637207 4.44010066986084 5.550182342529297
