20
Generated by QM7 dataset
C 2.107611656188965 -0.19838345050811768 0.17264537513256073
C 4.970244407653809 -0.45674681663513184 0.16831791400909424
C 6.2577714920043945 2.1041154861450195 -0.21297213435173035
C 9.157593727111816 1.9960421323776245 0.009070685133337975
C 10.359648704528809 0.27187490463256836 -1.9756897687911987
C 10.257301330566406 4.662710189819336 -0.2193027138710022
H 1.2214434146881104 -2.0522804260253906 0.41855543851852417
H 1.4321478605270386 0.6041832566261292 -1.6098576784133911
H 1.4747800827026367 1.0236079692840576 1.7176287174224854
H 5.508343696594238 -1.764399528503418 -1.3432739973068237
H 5.580550193786621 -1.2950292825698853 1.9611200094223022
H 5.532702445983887 3.432630777359009 1.2053996324539185
H 5.726531505584717 2.869171142578125 -2.066037654876709
H 9.652361869812012 1.2637543678283691 1.8869671821594238
H 9.794866561889648 0.8235993385314941 -3.8877334594726562
H 9.816484451293945 -1.7011126279830933 -1.683953881263733
H 12.424741744995117 0.35791411995887756 -1.8687502145767212
H 9.83405876159668 5.491903305053711 -2.0669825077056885
H 12.31296443939209 4.633325099945068 0.014210740104317665
H 9.476806640625 5.907529354095459 1.2372225522994995
