15
Generated by QM7 dataset
N 3.0479393005371094 0.9259846806526184 -4.402306079864502
C 4.890781402587891 1.7753976583480835 -3.568917989730835
C 7.235496997833252 2.900578498840332 -2.554267168045044
N 9.407944679260254 1.1825717687606812 -2.7796738147735596
C 11.735766410827637 2.277573585510254 -1.758957028388977
C 12.435267448425293 1.7671585083007812 0.94437175989151
C 13.8939847946167 0.5346980094909668 -1.1530920267105103
H 6.937656879425049 3.3878631591796875 -0.5631383657455444
H 7.630544185638428 4.660215854644775 -3.5748138427734375
H 9.639171600341797 0.694587767124176 -4.6322479248046875
H 12.26521110534668 4.110249042510986 -2.5309669971466064
H 11.205849647521973 0.5765554308891296 2.0706675052642822
H 13.35295581817627 3.261931896209717 2.0008041858673096
H 15.79644775390625 1.1989367008209229 -1.5184705257415771
H 13.64102554321289 -1.4786162376403809 -1.4348312616348267
