15
Generated by QM7 dataset
C 1.794880747795105 -0.03679296746850014 0.01719650812447071
C 4.624650955200195 0.002097595948725939 0.009921061806380749
C 5.938520908355713 2.1707661151885986 -0.0012661165092140436
O 8.5155029296875 2.385514736175537 -0.015023322775959969
C 9.975448608398438 0.09501542896032333 -0.07912283390760422
C 8.504486083984375 -2.33054256439209 -0.02345150150358677
C 5.977260589599609 -2.3629891872406006 0.01904843933880329
H 1.0408989191055298 -1.9635766744613647 -0.024566439911723137
H 1.0523128509521484 0.9540471434593201 -1.6410949230194092
H 1.0616481304168701 0.8819540739059448 1.7200853824615479
H 5.070040702819824 4.0233025550842285 0.004478651098906994
H 11.26490306854248 0.14630259573459625 1.5391629934310913
H 11.129315376281738 0.15070566534996033 -1.7969027757644653
H 9.562392234802246 -4.086154937744141 -0.022072000429034233
H 4.941312789916992 -4.131791591644287 0.05863820016384125
