12
Generated by QM7 dataset
C 1.8705265522003174 0.023640474304556847 -0.007672287989407778
C 4.668417453765869 0.091103695333004 -0.010261212475597858
N 6.115871906280518 2.1146602630615234 -0.01695084385573864
C 8.551898956298828 1.2365233898162842 -0.01753665879368782
C 8.59228229522705 -1.3587887287139893 -0.011281665414571762
N 6.108445167541504 -2.0666801929473877 -0.00689750025048852
H 1.0957955121994019 1.9412211179733276 0.014777658507227898
H 1.1672649383544922 -0.974475085735321 1.6614471673965454
H 1.164317011833191 -0.9367561340332031 -1.697465419769287
H 10.14378547668457 2.520989179611206 -0.022468844428658485
H 10.117650032043457 -2.714308023452759 -0.009732089936733246
H 5.437082290649414 -3.8545498847961426 -0.0020220070146024227
