10
Generated by QM7 dataset
C 1.840309739112854 -0.04251883924007416 -0.011413945816457272
C 4.6727447509765625 -0.14573568105697632 0.002721205586567521
O 5.878144264221191 -2.1195168495178223 0.011073795147240162
C 6.0038676261901855 2.23409104347229 0.0003023561730515212
C 7.135322570800781 4.200766563415527 -0.0006236096378415823
C 8.583419799804688 6.71088981628418 -0.0010960411746054888
N 9.657388687133789 8.621025085449219 -0.0012850137427449226
H 1.1606130599975586 1.9090391397476196 0.016629589721560478
H 1.1176974773406982 -1.0175986289978027 1.660313367843628
H 1.136197805404663 -0.9647619128227234 -1.72052001953125
