18
Generated by QM7 dataset
C 1.8495694398880005 -0.19169381260871887 0.5917866230010986
C 4.509642601013184 0.33778855204582214 -0.32584547996520996
C 6.065586090087891 2.2372846603393555 1.2019225358963013
C 7.768286228179932 -0.024094007909297943 1.8366436958312988
C 10.478191375732422 0.013209185563027859 0.8365817666053772
N 12.01102352142334 1.9268403053283691 2.123636484146118
O 6.200361728668213 -1.710277795791626 0.3363523483276367
H 1.0282188653945923 -1.7864336967468262 -0.4384920597076416
H 0.6356660723686218 1.4543521404266357 0.2852352559566498
H 1.8152520656585693 -0.6478548049926758 2.609503984451294
H 4.571587562561035 0.6860461831092834 -2.3682048320770264
H 5.110443115234375 3.0744709968566895 2.832038164138794
H 6.933650970458984 3.7319257259368896 0.06961750984191895
H 7.6811699867248535 -0.575629472732544 3.8345000743865967
H 10.506272315979004 0.37811529636383057 -1.2019035816192627
H 11.345613479614258 -1.8413869142532349 1.14388906955719
H 11.42500114440918 3.6842479705810547 1.596157193183899
H 13.832398414611816 1.7779866456985474 1.5100423097610474
