18
Generated by QM7 dataset
C 4.951725006103516 -1.2659841775894165 0.1130245178937912
O 4.198593616485596 1.31305730342865 0.11230642348527908
C 6.0541911125183105 3.1618897914886475 0.09741538017988205
C 4.910396575927734 5.785339832305908 0.0826566219329834
N 4.259405136108398 6.5923662185668945 2.6396450996398926
C 8.563029289245605 2.7073917388916016 0.06122712790966034
C 10.645960807800293 4.621155261993408 0.1189015656709671
H 3.240426778793335 -2.427542209625244 0.12593135237693787
H 6.039546012878418 -1.7209546566009521 1.8135323524475098
H 6.016075611114502 -1.7284002304077148 -1.5996153354644775
H 3.1951677799224854 5.765063285827637 -1.0808666944503784
H 6.162018775939941 7.180109024047852 -0.7905291318893433
H 3.138929605484009 5.226377964019775 3.4128642082214355
H 3.170053482055664 8.173235893249512 2.530513286590576
H 9.258883476257324 0.7778490781784058 0.049378544092178345
H 9.990339279174805 6.56948184967041 0.279792845249176
H 11.784162521362305 4.463646411895752 -1.6009382009506226
H 11.877476692199707 4.247745513916016 1.7388315200805664
