11
Generated by QM7 dataset
C 1.889726161956787 0.0 0.0
C 4.138802528381348 0.0 0.0
C 6.79575777053833 0.0 0.0
C 8.264717102050781 -2.012312650680542 0.06224757805466652
O 10.796062469482422 -1.4545222520828247 -0.06905059516429901
C 10.689481735229492 1.2609386444091797 -0.31074658036231995
O 8.143396377563477 2.23222017288208 -0.188859224319458
H -0.12281329929828644 0.01037459634244442 -0.00020786987442988902
H 7.77675199508667 -3.982635736465454 0.17428943514823914
H 11.516141891479492 1.7987546920776367 -2.1328771114349365
H 11.806026458740234 2.1134886741638184 1.2106341123580933
