15
Generated by QM7 dataset
C 1.9841179847717285 -0.000869274022988975 -0.4429329037666321
N 4.71337366104126 0.12152829021215439 -0.04607152193784714
C 6.073239803314209 -2.0988433361053467 0.32437148690223694
C 5.151752471923828 -4.448642253875732 0.16584236919879913
C 5.760829925537109 2.533536911010742 0.1314871460199356
N 8.32809829711914 2.661358118057251 0.2506532669067383
O 4.5573015213012695 4.517276763916016 0.1670706868171692
H 1.153205394744873 1.8654431104660034 -0.7568353414535522
H 1.090579867362976 -0.8319897055625916 1.2280951738357544
H 1.5818707942962646 -1.152411699295044 -2.114168882369995
H 8.052671432495117 -1.8880254030227661 0.8324810266494751
H 3.2031424045562744 -4.869899749755859 -0.2984066605567932
H 6.377957820892334 -6.055835247039795 0.519447922706604
H 9.27379322052002 1.4997245073318481 -0.929518461227417
H 8.956697463989258 4.4680495262146 0.21951058506965637
