17
Generated by QM7 dataset
N 3.819174289703369 -0.9782923460006714 -2.514204978942871
C 4.33788537979126 0.030141131952404976 0.01753665879368782
C 5.960139751434326 2.4250667095184326 -0.1357012391090393
O 8.297239303588867 1.8624573945999146 -1.4884049892425537
C 4.539689064025879 4.855235576629639 -0.9697129726409912
N 5.8209991455078125 6.257979393005371 1.0871405601501465
C 6.286778926849365 3.835444927215576 2.4107613563537598
H 3.1109237670898438 -2.7615513801574707 -2.3500823974609375
H 5.524179935455322 -1.1652618646621704 -3.4098973274230957
H 5.337625980377197 -1.4110207557678223 1.1182643175125122
H 2.5396785736083984 0.40262505412101746 0.973038911819458
H 9.108914375305176 3.4972405433654785 -1.692476511001587
H 2.4799633026123047 4.791929721832275 -0.7596887946128845
H 4.982300758361816 5.543606281280518 -2.8683018684387207
H 7.428494453430176 7.161740779876709 0.5288965702056885
H 8.157947540283203 3.691863536834717 3.280545711517334
H 4.862321853637695 3.4022629261016846 3.8521499633789062
