15
Generated by QM7 dataset
C 2.1472392082214355 -0.04535342752933502 0.2945327162742615
N 4.8710713386535645 -0.0919729694724083 0.4268324375152588
C 6.229538917541504 2.2581660747528076 0.1164260283112526
C 8.49242877960205 1.4394989013671875 -1.4441097974777222
O 8.599746704101562 -1.254078984260559 -1.2225772142410278
C 6.3228912353515625 -2.069760322570801 -0.35547637939453125
N 5.842012882232666 -4.434885025024414 -0.35634565353393555
H 1.3183296918869019 -1.8559188842773438 0.8498098254203796
H 1.5220232009887695 0.39429137110710144 -1.628584861755371
H 1.389572262763977 1.3964320421218872 1.5711183547973633
H 6.82822322845459 2.964583396911621 1.96724271774292
H 5.143078804016113 3.7399191856384277 -0.8351077437400818
H 8.258216857910156 1.9171271324157715 -3.44446063041687
H 10.25442886352539 2.2762696743011475 -0.7602556943893433
H 4.1046552658081055 -4.71726655960083 0.4218246638774872
