17
Generated by QM7 dataset
C 1.818540096282959 -0.27268749475479126 -0.25014305114746094
C 4.61646842956543 0.07625044882297516 -0.0674821212887764
C 5.814120292663574 2.3035006523132324 0.202295184135437
C 4.608512878417969 4.862265110015869 0.29468390345573425
C 8.623897552490234 2.2259840965270996 0.39757949113845825
N 10.000165939331055 4.238749980926514 0.6356282830238342
N 12.504374504089355 3.741884469985962 0.7717263698577881
H 1.3250004053115845 -2.209486722946167 0.274955153465271
H 1.175163984298706 0.04765889421105385 -2.1855437755584717
H 0.7963683605194092 0.9796151518821716 1.033793568611145
H 5.705045223236084 -1.6691950559616089 -0.1518772840499878
H 2.5609757900238037 4.787999153137207 0.03787011280655861
H 5.363213062286377 6.069554805755615 -1.2098971605300903
H 4.979787349700928 5.771696090698242 2.1157562732696533
H 9.491546630859375 0.32013851404190063 0.3338768184185028
H 13.440582275390625 5.36209774017334 1.2591056823730469
H 13.201929092407227 3.277163028717041 -0.9709601998329163
