17
Generated by QM7 dataset
C 4.307158470153809 -0.7765262722969055 -2.5882444381713867
C 4.567845821380615 0.2910178303718567 0.06940963864326477
C 5.486706256866455 2.999070882797241 0.06443966180086136
C 3.8411896228790283 4.932960033416748 0.10933955758810043
C 8.30079174041748 3.4316859245300293 0.0005480205873027444
N 9.503300666809082 2.408134698867798 2.255312442779541
H 3.7066032886505127 -2.7550883293151855 -2.5022430419921875
H 6.097295761108398 -0.696931004524231 -3.623039722442627
H 2.8860843181610107 0.2681521475315094 -3.672947406768799
H 5.847719669342041 -0.9067094922065735 1.1706852912902832
H 2.7304463386535645 0.16880923509597778 1.0195072889328003
H 1.8154410123825073 4.60754919052124 0.13804449141025543
H 4.46757698059082 6.886351108551025 0.0978689193725586
H 8.739831924438477 5.4527482986450195 -0.1272541582584381
H 9.107402801513672 2.534576177597046 -1.6813271045684814
H 8.792423248291016 3.318774938583374 3.7951748371124268
H 11.38144302368164 2.819546937942505 2.20648193359375
