14
Generated by QM7 dataset
O 1.6812326908111572 -0.18018539249897003 -0.14114364981651306
C 4.000115394592285 -0.07226312905550003 -0.08813682943582535
C 5.438197135925293 2.383190393447876 0.36133453249931335
N 7.976193904876709 2.2902536392211914 -0.7663784623146057
C 9.438010215759277 0.1332634836435318 0.13271546363830566
C 8.00850772857666 -2.3001368045806885 -0.06508217006921768
C 5.487367630004883 -2.444209575653076 -0.24154479801654816
H 4.382955074310303 3.915229082107544 -0.5433340668678284
H 5.533174991607666 2.7449216842651367 2.3967206478118896
H 8.913800239562988 3.9188761711120605 -0.348956823348999
H 10.051812171936035 0.4198782444000244 2.0900182723999023
H 11.14413070678711 -0.006840808782726526 -1.0317527055740356
H 9.11428165435791 -4.029973030090332 -0.07878268510103226
H 4.457296848297119 -4.201692581176758 -0.40870997309684753
