12
Generated by QM7 dataset
C 1.8946771621704102 0.015231193043291569 -0.009032891131937504
C 4.740321159362793 0.059167325496673584 -0.003836143994703889
C 6.097995281219482 -2.447875738143921 -0.011621816083788872
N 5.875687599182129 2.2373034954071045 0.0014361918438225985
O 8.50395679473877 1.9494414329528809 0.000944863073527813
H 1.1315491199493408 1.9354764223098755 0.0070297811180353165
H 1.223994493484497 -0.9926542639732361 1.6653778553009033
H 1.230438470840454 -0.9622107744216919 -1.7039282321929932
H 4.737883567810059 -4.003195762634277 0.0062171989120543
H 7.2959489822387695 -2.5969371795654297 1.6654534339904785
H 7.260384559631348 -2.6032679080963135 -1.7129422426223755
H 9.090414047241211 3.696833372116089 0.005442411173135042
