19
Generated by QM7 dataset
C 1.7134336233139038 -0.12589354813098907 0.3155086636543274
C 4.576179504394531 0.08620930463075638 -0.14137041568756104
N 5.819241523742676 -1.3977737426757812 1.8908789157867432
C 5.313399791717529 -1.0455665588378906 -2.7539546489715576
N 4.165806770324707 0.23292765021324158 -4.925854682922363
C 5.451047420501709 2.879696846008301 0.048547063022851944
O 5.096761226654053 3.8430793285369873 2.553946018218994
H 0.6509161591529846 1.0841926336288452 -0.9843016266822815
H 1.193154215812683 0.44219592213630676 2.238569498062134
H 1.0546183586120605 -2.072065830230713 0.048773832619190216
H 5.565546035766602 -0.4083698093891144 3.5392112731933594
H 7.72977352142334 -1.3310097455978394 1.6219141483306885
H 4.792987823486328 -3.0514540672302246 -2.8276162147521973
H 7.37255859375 -0.9589982032775879 -2.9828381538391113
H 2.268616199493408 -0.114687480032444 -4.934887409210205
H 4.836376190185547 -0.5756483674049377 -6.542232036590576
H 4.422034740447998 4.103407859802246 -1.2652283906936646
H 7.469822883605957 3.0411550998687744 -0.38074201345443726
H 3.294624090194702 4.136478424072266 2.763932228088379
