15
Generated by QM7 dataset
C 1.5584383010864258 0.1509135216474533 0.11366702616214752
C 4.3116559982299805 0.14203181862831116 0.7327601909637451
C 6.046518802642822 1.535251259803772 -0.4875304400920868
C 8.752096176147461 1.5751434564590454 0.06689630448818207
C 10.400391578674316 -0.5267800688743591 -0.917953372001648
N 10.45199966430664 1.9741591215133667 -2.069117784500122
H 0.9521384835243225 -1.7515493631362915 -0.4257930815219879
H 1.1083621978759766 1.4368910789489746 -1.4430515766143799
H 0.4663655161857605 0.7364073991775513 1.7694262266159058
H 4.901836395263672 -1.0889924764633179 2.2675201892852783
H 5.427501201629639 2.7595670223236084 -2.021723508834839
H 9.283714294433594 2.487673282623291 1.8240392208099365
H 9.550241470336914 -2.0120670795440674 -2.0408096313476562
H 12.040881156921387 -1.0758588314056396 0.17347685992717743
H 12.012384414672852 2.9612765312194824 -1.5120455026626587
