15
Generated by QM7 dataset
C 1.6950654983520508 0.5826025605201721 -0.27023082971572876
C 4.287448406219482 0.4494902491569519 -1.414894700050354
O 4.786997318267822 -0.8100122213363647 -3.2913928031921387
C 6.246263027191162 2.0257296562194824 -0.1753665804862976
C 8.202394485473633 3.398729085922241 -1.73565673828125
C 6.141383171081543 4.858051300048828 -0.46092310547828674
O 6.877979755401611 6.263213634490967 1.735297679901123
H 0.6593443751335144 2.1654748916625977 -1.0991402864456177
H 1.8250408172607422 0.8298543095588684 1.777117371559143
H 0.6862351298332214 -1.1810599565505981 -0.64802485704422
H 6.887409210205078 1.2848248481750488 1.6256557703018188
H 8.12629508972168 3.1945443153381348 -3.7738020420074463
H 10.101606369018555 3.516629219055176 -0.9799931049346924
H 4.679774284362793 5.660013198852539 -1.6574032306671143
H 7.660477161407471 7.861808776855469 1.268988847732544
