17
Generated by QM7 dataset
C 1.6795697212219238 -0.020465733483433723 0.33552086353302
C 4.503822326660156 0.05593589320778847 -0.11663389950990677
C 6.020686149597168 2.02966046333313 1.4465097188949585
C 7.960017681121826 -0.017083123326301575 2.2720556259155273
C 10.504250526428223 0.022884583100676537 0.9507212042808533
C 6.0741658210754395 -1.9927729368209839 1.2401894330978394
O 5.909324645996094 -4.2745795249938965 1.4126837253570557
H 0.8365628719329834 -1.6596142053604126 -0.6041265726089478
H 0.7770364880561829 1.6784358024597168 -0.4257175028324127
H 1.22909677028656 -0.1374586820602417 2.351518392562866
H 4.953652381896973 0.12286999076604843 -2.140662908554077
H 4.974552631378174 2.8429417610168457 3.0408339500427246
H 6.795870780944824 3.592067003250122 0.3332343101501465
H 8.177336692810059 -0.13371701538562775 4.329362392425537
H 10.29594612121582 0.10608922690153122 -1.106982707977295
H 11.593072891235352 -1.6737115383148193 1.4146300554275513
H 11.606263160705566 1.668647050857544 1.5469298362731934
