15
Generated by QM7 dataset
C 1.8482277393341064 -0.14108695089817047 0.03970314562320709
C 4.721991062164307 -0.10767659544944763 0.05353594198822975
C 5.746241569519043 2.591343641281128 -0.0582035630941391
C 8.584648132324219 2.6188769340515137 -0.026588447391986847
C 10.014452934265137 3.554631471633911 -1.8910489082336426
H 1.1540746688842773 -2.087637186050415 0.12324793636798859
H 1.1052629947662354 0.7318531274795532 -1.6823664903640747
H 1.086989402770996 0.8825966119766235 1.6682124137878418
H 5.419923305511475 -1.200278401374817 -1.5630302429199219
H 5.400496959686279 -1.057075023651123 1.7672340869903564
H 5.0626139640808105 3.6705472469329834 1.5734049081802368
H 5.024800777435303 3.5418190956115723 -1.7530800104141235
H 9.50473690032959 1.8390058279037476 1.6393752098083496
H 9.187206268310547 4.361771583557129 -3.5865490436553955
H 12.062613487243652 3.5308399200439453 -1.756613850593567
