12
Generated by QM7 dataset
C 1.7849596738815308 0.02040904201567173 -0.015023322775959969
C 4.579845905303955 0.055784717202186584 -0.001908623380586505
C 6.1756062507629395 2.114433526992798 0.006254993379116058
N 8.576163291931152 1.1763923168182373 0.016837459057569504
N 8.665301322937012 -1.3595445156097412 0.01602487824857235
C 6.236341953277588 -2.039562463760376 0.00455424003303051
H 1.0087169408798218 1.9378007650375366 0.0029479728545993567
H 1.0662590265274048 -0.9775553345680237 1.6481813192367554
H 1.082057237625122 -0.9401387572288513 -1.706725001335144
H 5.822208404541016 4.125857830047607 0.0054802056401968
H 10.23022174835205 2.142155647277832 0.024849899113178253
H 5.767273902893066 -4.031314849853516 0.0013228083262220025
