19
Generated by QM7 dataset
C 3.549642562866211 4.180697917938232 3.652935028076172
C 6.237796783447266 3.432347297668457 3.188553810119629
N 7.719569206237793 4.868596076965332 1.8761012554168701
N 10.094822883605957 3.939776659011841 1.6377500295639038
C 11.905463218688965 5.551637649536133 0.2773173153400421
C 12.35448169708252 8.027575492858887 1.6958212852478027
C 14.394421577453613 4.1182990074157715 -0.03422294184565544
H 2.307072162628174 2.734868288040161 2.8607430458068848
H 3.130652666091919 6.008138656616211 2.790086269378662
H 3.2307136058807373 4.28436803817749 5.690154552459717
H 6.866622447967529 1.6217440366744995 4.021526336669922
H 10.081084251403809 2.189531087875366 0.8167585134506226
H 11.155960083007812 5.974539279937744 -1.6087994575500488
H 13.078983306884766 7.686309814453125 3.6058430671691895
H 10.610074996948242 9.129135131835938 1.8603219985961914
H 13.734681129455566 9.20041561126709 0.6940774917602539
H 15.226241111755371 3.6327338218688965 1.7992838621139526
H 15.771484375 5.2635297775268555 -1.0725518465042114
H 14.116178512573242 2.362403392791748 -1.0957199335098267
