20
Generated by QM7 dataset
C 1.886494755744934 -0.02091926895081997 0.10002320259809494
C 4.773694038391113 0.030008850619196892 0.01855711080133915
C 5.670312404632568 0.16145819425582886 -2.7380998134613037
C 5.835493087768555 2.19399094581604 1.6062672138214111
C 8.448758125305176 1.2719746828079224 2.3337929248809814
C 8.157569885253906 -1.578053593635559 2.5219340324401855
N 5.773377895355225 -2.239419937133789 1.274317979812622
H 1.1812866926193237 -0.17893816530704498 2.0432286262512207
H 1.1272027492523193 -1.6262983083724976 -0.9685602188110352
H 1.0927530527114868 1.712375283241272 -0.7099701166152954
H 7.734989166259766 0.1331501007080078 -2.895589590072632
H 5.002747535705566 1.9017826318740845 -3.644601345062256
H 4.943844795227051 -1.4361162185668945 -3.8408305644989014
H 4.712636947631836 2.4839882850646973 3.3260691165924072
H 5.910401821136475 3.9945785999298096 0.588347315788269
H 9.812383651733398 1.752324104309082 0.8497342467308044
H 9.10632610321045 2.11783504486084 4.1013102531433105
H 9.761663436889648 -2.5450453758239746 1.6443641185760498
H 8.063385963439941 -2.1748480796813965 4.502518177032471
H 6.035653114318848 -3.6781251430511475 0.021561775356531143
