17
Generated by QM7 dataset
C 1.5661104917526245 -0.5065599679946899 0.26858678460121155
C 4.370634078979492 -0.15750867128372192 0.3094048500061035
C 5.69510555267334 1.9880675077438354 -0.06984427571296692
C 4.531790256500244 4.549232006072998 -0.5115488767623901
C 8.560516357421875 1.9630852937698364 0.012623370625078678
C 9.623014450073242 2.3709826469421387 -2.5226898193359375
C 10.501982688903809 2.7024784088134766 -4.590031623840332
H 1.0894460678100586 -2.0917000770568848 -0.9730767011642456
H 0.535132646560669 1.140506386756897 -0.4235821068286896
H 0.8868862986564636 -0.9546140432357788 2.169443368911743
H 5.412099838256836 -1.9010077714920044 0.654638946056366
H 2.499729633331299 4.595681667327881 -0.15299223363399506
H 4.8457112312316895 5.16078519821167 -2.462350845336914
H 5.383716583251953 5.947572708129883 0.7552290558815002
H 9.263513565063477 0.1627999097108841 0.7618619799613953
H 9.228344917297363 3.4276230335235596 1.3172903060913086
H 11.27367115020752 2.993760824203491 -6.426334857940674
