18
Generated by QM7 dataset
C 1.9473060369491577 0.031331658363342285 -0.11013323813676834
C 4.761448383331299 -0.015023322775959969 -0.019331898540258408
C 6.327672481536865 -1.4299179315567017 -1.9551295042037964
C 5.156004428863525 -2.871079921722412 -4.072548866271973
C 6.289046287536621 1.4238897562026978 -1.9612901210784912
C 8.577863693237305 2.8663365840911865 -1.1774883270263672
H 1.2140356302261353 1.307577133178711 1.343217372894287
H 1.1881085634231567 -1.8569016456604004 0.2561712861061096
H 1.2273393869400024 0.681435227394104 -1.9357787370681763
H 5.438442707061768 -0.07239540666341782 1.9181475639343262
H 8.016237258911133 -2.3731181621551514 -1.2733352184295654
H 3.494840621948242 -1.9268970489501953 -4.860413551330566
H 4.584589004516602 -4.750072479248047 -3.4204041957855225
H 6.527435302734375 -3.115100145339966 -5.601903915405273
H 5.290363788604736 2.374818801879883 -3.4768126010894775
H 9.595292091369629 1.936591386795044 0.36566200852394104
H 8.041748046875 4.761599540710449 -0.5449592471122742
H 9.874574661254883 3.0630381107330322 -2.7766125202178955
