10
Generated by QM7 dataset
C 1.8163858652114868 -0.0742473378777504 -0.0047432123683393
C 4.08305549621582 0.027174262329936028 -0.00041573974885977805
C 6.773950099945068 0.15034660696983337 0.005158952437341213
C 8.167641639709473 2.3488729000091553 0.0006425068713724613
S 11.328624725341797 1.6193819046020508 0.011243870481848717
C 10.5562744140625 -1.533550500869751 0.0206547062844038
N 8.129677772521973 -2.072443723678589 0.0164406169205904
H -0.1923174262046814 -0.17920273542404175 -0.008144719526171684
H 7.510395050048828 4.28109884262085 -0.00784236378967762
H 11.997247695922852 -2.984633445739746 0.029630905017256737
