19
Generated by QM7 dataset
C 2.6226186752319336 1.0342282056808472 -1.1028441190719604
C 4.500212669372559 2.054283380508423 0.7355570197105408
C 6.8099870681762695 2.853977680206299 0.10240425914525986
O 8.461267471313477 3.7451727390289307 1.8799374103546143
C 10.43280029296875 5.304725646972656 0.8647575974464417
C 11.1327543258667 7.222778797149658 2.8988966941833496
C 12.710487365722656 3.671133279800415 0.19046549499034882
H 2.1267166137695312 -0.9092417359352112 -0.5999124646186829
H 3.3470640182495117 1.035305380821228 -3.0403614044189453
H 0.9000198841094971 2.1774935722351074 -1.0584923028945923
H 3.9253768920898438 2.1385841369628906 2.7062768936157227
H 7.521298885345459 2.801840305328369 -1.8137590885162354
H 9.772756576538086 6.345945835113525 -0.8051556348800659
H 11.752263069152832 6.2763285636901855 4.6330037117004395
H 9.484176635742188 8.368236541748047 3.403982639312744
H 12.63931941986084 8.484794616699219 2.2561628818511963
H 13.360816955566406 2.5930254459381104 1.833828091621399
H 14.27742862701416 4.8249053955078125 -0.50905442237854
H 12.218459129333496 2.2891197204589844 -1.2685164213180542
