17
Generated by QM7 dataset
C 1.8965669870376587 0.23842674493789673 -0.290280818939209
O 4.569754600524902 0.13143044710159302 -0.5369278788566589
C 5.815896511077881 2.391146183013916 -0.3632053732872009
C 8.323128700256348 2.5920238494873047 -0.5726248025894165
C 9.186430931091309 5.25003719329834 -0.22540652751922607
C 6.72445821762085 6.753843307495117 -0.3793814182281494
C 4.585836410522461 4.881162643432617 0.15834015607833862
H 1.1690980195999146 -1.6938371658325195 -0.39610549807548523
H 1.0572829246520996 1.319954752922058 -1.841103434562683
H 1.3458629846572876 1.0279165506362915 1.5408449172973633
H 9.58138370513916 1.0156521797180176 -0.8923475742340088
H 10.101455688476562 5.474631309509277 1.6163206100463867
H 10.506858825683594 5.830598831176758 -1.7060447931289673
H 6.503133296966553 7.534111499786377 -2.289289712905884
H 6.706392288208008 8.35226821899414 0.9343940019607544
H 2.972180128097534 5.268688678741455 -1.0731943845748901
H 3.9797065258026123 4.9936957359313965 2.1341054439544678
