16
Generated by QM7 dataset
C 1.8554654121398926 0.11515991389751434 0.030481282621622086
C 4.65592622756958 -0.04008109122514725 0.005971534643322229
C 6.123921871185303 -2.1161530017852783 -0.023659370839595795
C 8.857600212097168 -1.367613673210144 -0.010261212475597858
N 10.175268173217773 -2.2709784507751465 -2.232919216156006
C 8.682365417480469 1.4575647115707397 -0.015495753847062588
C 6.25238561630249 2.1781740188598633 0.008352589793503284
H 0.9956589341163635 -1.767460823059082 0.0219208225607872
H 1.167189359664917 1.1332876682281494 -1.6341785192489624
H 1.194854974746704 1.1056410074234009 1.722768783569336
H 5.452861309051514 -4.042181015014648 -0.011527329683303833
H 9.79299545288086 -2.0345547199249268 1.7105989456176758
H 9.225000381469727 -1.651601791381836 -3.7891087532043457
H 10.078344345092773 -4.189447402954102 -2.276779890060425
H 10.295397758483887 2.7058422565460205 -0.020881474018096924
H 5.567813396453857 4.099685192108154 0.016818562522530556
