12
Generated by QM7 dataset
O 3.7272770404815674 -0.775505781173706 -2.4231958389282227
C 4.702867031097412 -0.26089558005332947 0.024075111374258995
C 5.607063293457031 2.393734931945801 0.006576247047632933
C 4.255002021789551 4.59318733215332 -0.3795892894268036
N 5.618760585784912 6.815202713012695 -0.23041430115699768
C 8.000004768371582 6.2747602462768555 0.2242726981639862
S 8.720027923583984 3.131446361541748 0.5424647927284241
H 3.2564516067504883 -2.5499587059020996 -2.4431512355804443
H 6.21306037902832 -1.6128435134887695 0.4358842372894287
H 3.1881191730499268 -0.5061442255973816 1.4104915857315063
H 2.248112678527832 4.677998065948486 -0.7790396213531494
H 9.433173179626465 7.722668170928955 0.3981274962425232
