14
Generated by QM7 dataset
C 1.893675684928894 -0.10229087620973587 0.005782561842352152
C 4.762109756469727 0.0 0.0
C 5.672995567321777 2.5722384452819824 0.0
C 6.423746109008789 4.692322254180908 0.0
C 7.33463191986084 7.264560699462891 0.0
C 6.233072757720947 9.761116027832031 0.0
N 5.355011463165283 11.751091957092285 0.0
H 1.2423059940338135 -2.067228078842163 0.0050644660368561745
H 1.1050362586975098 0.83489990234375 -1.6653022766113281
H 1.1119526624679565 0.831403911113739 1.6820452213287354
H 5.471909999847412 -1.0068082809448242 -1.664508581161499
H 5.478713035583496 -1.0092837810516357 1.6600676774978638
H 8.639090538024902 7.3152055740356445 -1.6242574453353882
H 8.639090538024902 7.3152055740356445 1.6242574453353882
