17
Generated by QM7 dataset
C 1.7966948747634888 0.33264848589897156 -1.7119028568267822
C 4.562384605407715 0.173760324716568 -1.1784709692001343
C 6.080212593078613 2.188624143600464 -0.9134369492530823
C 8.796656608581543 2.097066879272461 -0.3701595664024353
C 10.567575454711914 1.0422595739364624 -2.3350021839141846
C 10.541232109069824 3.8276591300964355 -1.8167637586593628
O 12.673202514648438 4.812489986419678 -0.4585987329483032
H 1.367065668106079 -0.6244221925735474 -3.494689464569092
H 1.1365758180618286 2.287532329559326 -1.854085922241211
H 0.7334027290344238 -0.5985896587371826 -0.20170937478542328
H 5.355294704437256 -1.7147563695907593 -1.0040870904922485
H 5.259995937347412 4.07009220123291 -1.0753297805786133
H 9.243425369262695 1.7363938093185425 1.5986894369125366
H 9.799287796020508 0.4089934229850769 -4.126216888427734
H 12.168834686279297 -0.05977203696966171 -1.6941205263137817
H 9.733582496643066 5.0360636711120605 -3.2659568786621094
H 13.293769836425781 3.6426172256469727 0.8168530464172363
