15
Generated by QM7 dataset
O 1.6459325551986694 -0.06725535541772842 0.3118993043899536
C 4.356442451477051 -0.022884583100676537 0.039003945887088776
C 5.752742290496826 1.999424695968628 1.6529057025909424
C 7.7595744132995605 -0.004837698768824339 2.2990219593048096
C 5.813137531280518 -2.0485198497772217 1.59426748752594
C 4.943202495574951 0.024604234844446182 -2.639437198638916
C 5.422361373901367 0.06375935673713684 -4.857692241668701
H 1.340911865234375 -0.09743428230285645 2.120594024658203
H 4.672291278839111 2.653458833694458 3.296041488647461
H 6.4708757400512695 3.6588311195373535 0.6489130854606628
H 9.410118103027344 0.037907905876636505 1.0487223863601685
H 8.406427383422852 -0.0236026793718338 4.260425567626953
H 6.580026626586914 -3.655996561050415 0.5429561138153076
H 4.7533793449401855 -2.7818281650543213 3.2172775268554688
H 5.826725006103516 0.09817127138376236 -6.829678058624268
