18
Generated by QM7 dataset
C 4.680946350097656 6.1014533042907715 3.0922911167144775
C 5.150543212890625 3.683246374130249 2.508800506591797
C 7.354833126068115 2.181178569793701 3.4783623218536377
N 8.833562850952148 1.164146900177002 1.3734906911849976
C 10.574756622314453 3.113210439682007 0.3286989629268646
C 12.603169441223145 1.032281756401062 0.18859466910362244
C 11.080106735229492 -0.21858462691307068 2.333207130432129
H 3.041703224182129 7.06309700012207 2.3155570030212402
H 5.911157608032227 7.172247886657715 4.3347859382629395
H 3.8634696006774902 2.690573215484619 1.2499783039093018
H 6.58760404586792 0.5983250737190247 4.576935768127441
H 8.499817848205566 3.309779644012451 4.792043209075928
H 11.077347755432129 4.669210910797119 1.6042451858520508
H 9.997974395751953 3.9013962745666504 -1.4932615756988525
H 12.60231876373291 -0.03611266613006592 -1.5870108604431152
H 14.533638000488281 1.6012027263641357 0.6487051844596863
H 10.9389066696167 -2.277554512023926 2.2240564823150635
H 11.733328819274902 0.3094426691532135 4.229187965393066
