15
Generated by QM7 dataset
C 1.7915737628936768 0.00636837724596262 0.024585336446762085
C 4.654924392700195 -0.007275445386767387 0.02774117887020111
C 5.9708733558654785 1.8964534997940063 1.7995295524597168
N 7.8768510818481445 -0.06844588369131088 2.3856279850006104
C 5.974917411804199 -2.0423026084899902 1.6759414672851562
C 7.07213020324707 -4.1554131507873535 0.3113323748111725
N 7.954877853393555 -5.820432186126709 -0.8123932480812073
H 1.0592482089996338 -1.6075143814086914 -1.0422217845916748
H 1.0743471384048462 1.7323685884475708 -0.8617340326309204
H 1.0224741697311401 -0.09388159215450287 1.9428274631500244
H 5.394223213195801 0.09966415911912918 -1.9131776094436646
H 4.863304615020752 2.4737648963928223 3.452775239944458
H 6.726744651794434 3.590479612350464 0.8875098824501038
H 9.404373168945312 -0.02084367908537388 1.2032830715179443
H 4.849547386169434 -2.6529486179351807 3.3095908164978027
