13
Generated by QM7 dataset
C 3.177631139755249 2.9284141063690186 -2.7448272705078125
C 4.8456926345825195 2.4329845905303955 -1.2855995893478394
C 6.831057548522949 1.838420033454895 0.46689462661743164
N 9.039372444152832 2.087240219116211 -0.5178038477897644
N 10.877811431884766 1.5207570791244507 1.1563234329223633
C 12.970645904541016 0.4370558559894562 -0.2949106693267822
C 13.03990364074707 3.1358683109283447 0.5422568917274475
H 1.713320255279541 3.3715736865997314 -4.052309989929199
H 6.375860214233398 1.2468223571777344 2.4116873741149902
H 12.668743133544922 0.02757110446691513 -2.2782161235809326
H 14.127177238464355 -0.9169707298278809 0.7096299529075623
H 14.243829727172852 3.628444194793701 2.1195924282073975
H 12.786340713500977 4.608928680419922 -0.857123076915741
