17
Generated by QM7 dataset
C 1.8066537380218506 -0.17582011222839355 0.19772204756736755
C 4.684744358062744 -0.03257887810468674 0.07453079521656036
O 5.4413909912109375 -1.4052759408950806 -2.1355605125427246
C 5.720938205718994 2.707637310028076 0.0
C 4.759124279022217 4.317343711853027 2.204233169555664
C 8.449702262878418 2.707637310028076 0.0
C 10.698779106140137 2.707637310028076 0.0
H 1.0720038414001465 0.5656517148017883 1.9821337461471558
H 1.1736711263656616 -2.139547824859619 0.012491089291870594
H 0.9490393400192261 0.8738849759101868 -1.3659884929656982
H 5.469793319702148 -1.0502909421920776 1.7018306255340576
H 5.105170726776123 -0.3559677004814148 -3.6046714782714844
H 5.0849504470825195 3.595770835876465 -1.764588475227356
H 5.197994232177734 3.4382810592651367 4.026930809020996
H 2.713665723800659 4.5985541343688965 2.0964810848236084
H 5.633254528045654 6.1956939697265625 2.1900224685668945
H 12.71262264251709 2.692085027694702 -0.0030046645551919937
