15
Generated by QM7 dataset
N 2.131497621536255 0.13706183433532715 0.8973175287246704
N 4.348486423492432 0.1619306355714798 -0.3693658709526062
C 5.605910301208496 2.2679169178009033 -0.25658702850341797
C 4.906825065612793 4.624858856201172 1.1219115257263184
C 6.543441295623779 6.454699993133545 -0.3405853509902954
O 8.81933307647705 5.114940643310547 -0.9521384835243225
C 8.109343528747559 2.5628466606140137 -1.5680569410324097
H 1.4666543006896973 -1.6788326501846313 0.9739459753036499
H 0.7709704637527466 1.1048473119735718 -0.07889606803655624
H 5.534233093261719 4.445221900939941 3.0838441848754883
H 2.905094861984253 5.105567455291748 1.0335668325424194
H 5.635125637054443 7.040250301361084 -2.109520196914673
H 7.006065368652344 8.146060943603516 0.7530369758605957
H 7.8994140625 2.3648409843444824 -3.6126272678375244
H 9.518568992614746 1.2526427507400513 -0.8236371278762817
