17
Generated by QM7 dataset
C 1.6564961671829224 -0.30532306432724 -0.21285875141620636
C 4.470941066741943 0.19946059584617615 -0.14488530158996582
C 5.404125213623047 2.256389617919922 1.7013204097747803
N 7.685629367828369 0.6572845578193665 2.160259246826172
C 6.102133750915527 -1.5822298526763916 1.4918253421783447
N 8.578600883483887 0.6839863657951355 4.556583404541016
C 10.882214546203613 1.474685549736023 4.652108669281006
H 1.2513200044631958 -2.020551919937134 -1.29604971408844
H 0.6581727266311646 1.2664377689361572 -1.1143715381622314
H 0.875207781791687 -0.551157534122467 1.687563180923462
H 5.237338066101074 0.44314077496528625 -2.061143159866333
H 4.202883243560791 2.541322708129883 3.3685312271118164
H 5.805295467376709 4.095093250274658 0.8460870981216431
H 7.1055402755737305 -3.0627357959747314 0.45489487051963806
H 5.108288764953613 -2.444965362548828 3.095806121826172
H 11.851700782775879 1.5936059951782227 6.490170001983643
H 11.98012638092041 2.057684898376465 2.974447727203369
