12
Generated by QM7 dataset
O 2.7808074951171875 0.163706973195076 2.0897159576416016
C 4.423810958862305 0.06542231887578964 0.47859203815460205
N 5.5344977378845215 -2.0999393463134766 -0.43902117013931274
C 7.432651996612549 -1.571968674659729 -2.263306140899658
C 9.709809303283691 0.003760555060580373 -1.6501277685165405
C 7.3489179611206055 1.2724659442901611 -2.569385051727295
O 5.5023345947265625 2.120197057723999 -0.7059261202812195
H 5.0685858726501465 -3.8144121170043945 0.25084224343299866
H 7.410504341125488 -2.722622871398926 -3.954573154449463
H 10.239234924316406 0.24808324873447418 0.313656747341156
H 11.305078506469727 -0.08231647312641144 -2.931607723236084
H 7.287407398223877 2.0568723678588867 -4.456333160400391
