16
Generated by QM7 dataset
C 1.8039137125015259 0.007861260324716568 -0.06546011567115784
C 4.674917697906494 0.007048678584396839 0.24385026097297668
C 5.821074485778809 2.5086493492126465 -0.6203970909118652
C 6.996352195739746 2.2226390838623047 -3.212080955505371
O 8.768745422363281 0.1999330222606659 -3.0713717937469482
N 7.596302032470703 -2.174337863922119 -2.791579008102417
C 5.736754894256592 -2.222412347793579 -1.1931920051574707
H 0.944919764995575 1.5361772775650024 1.034322738647461
H 0.9898385405540466 -1.777854323387146 0.5956227779388428
H 1.2571402788162231 0.24490851163864136 -2.047877311706543
H 5.090600967407227 -0.29725390672683716 2.250814914703369
H 4.440591812133789 4.051005840301514 -0.6049202084541321
H 7.313296794891357 3.0253570079803467 0.7243131399154663
H 8.026082992553711 3.939908981323242 -3.729846954345703
H 5.593891620635986 1.8441836833953857 -4.688561916351318
H 4.8460516929626465 -4.0728888511657715 -0.8302322626113892
