19
Generated by QM7 dataset
C 1.7018684148788452 0.2132744938135147 -0.5261564254760742
C 4.487419128417969 0.15157493948936462 0.0734158605337143
C 5.032321929931641 -0.0657435730099678 2.8659207820892334
C 6.229690074920654 -1.2097270488739014 -1.7429133653640747
C 6.3334736824035645 1.630210041999817 -1.5725544691085815
C 5.487689018249512 3.2081124782562256 -3.7610085010528564
O 8.475156784057617 2.687927484512329 -0.28134241700172424
H 1.3156840801239014 0.028818324208259583 -2.548957109451294
H 0.8693307042121887 1.9892202615737915 0.1323942095041275
H 0.726939857006073 -1.3476203680038452 0.4215412139892578
H 7.047242164611816 -0.32423922419548035 3.2613272666931152
H 4.035585880279541 -1.6911159753799438 3.67043399810791
H 4.3983564376831055 1.6394129991531372 3.8515264987945557
H 5.417807102203369 -2.0534141063690186 -3.4261868000030518
H 7.780588150024414 -2.303784132003784 -0.9722830057144165
H 4.052366733551025 2.2718098163604736 -4.916897296905518
H 7.094277381896973 3.6266112327575684 -4.996133327484131
H 4.710104465484619 5.002804279327393 -3.0888328552246094
H 9.898782730102539 1.5283538103103638 -0.26263412833213806
