11
Generated by QM7 dataset
O 2.1477303504943848 0.045504603534936905 -0.8740361332893372
C 4.369670391082764 -0.028364788740873337 -0.2679064869880676
C 5.933910369873047 -2.3621954917907715 0.06948523223400116
C 8.406163215637207 -1.212807297706604 0.8267929553985596
O 10.337217330932617 -2.357490062713623 1.346940040588379
C 8.231080055236816 1.5731024742126465 0.8717306852340698
C 5.8853254318237305 2.261302947998047 0.23566775023937225
H 6.123241901397705 -3.369948625564575 -1.719405174255371
H 5.178662300109863 -3.528534412384033 1.5921887159347534
H 9.805051803588867 2.768864631652832 1.3540832996368408
H 5.1242194175720215 4.1421661376953125 0.08492429554462433
