9
Generated by QM7 dataset
N 1.7616971731185913 0.20118024945259094 0.0005291232955642045
C 3.957634449005127 0.14367587864398956 0.000925965781789273
C 6.651703834533691 -0.02757110446691513 0.0014172946102917194
N 8.040538787841797 2.084632396697998 0.0014172946102917194
O 10.53269100189209 1.2673826217651367 0.0019464179640635848
C 10.585811614990234 -1.2972780466079712 0.0022676712833344936
C 8.164372444152832 -2.2183682918548584 0.0019464179640635848
H 12.444923400878906 -2.141418695449829 0.002683411119505763
H 7.580560684204102 -4.173006534576416 0.0020786987151950598
