14
Generated by QM7 dataset
C 1.891615867614746 -0.10247984528541565 0.005839253775775433
C 4.762109756469727 0.0 0.0
C 5.672995567321777 2.5722384452819824 0.0
C 6.423746109008789 4.692322254180908 0.0
C 7.455498695373535 7.213859558105469 0.0
N 10.020140647888184 7.36507511138916 0.0
O 6.082386016845703 9.069626808166504 0.0
H 1.2427972555160522 -2.0667178630828857 0.004535342566668987
H 1.1054141521453857 0.8349565863609314 -1.66433846950531
H 1.1124628782272339 0.8303834795951843 1.6818562746047974
H 5.471966743469238 -1.0066949129104614 -1.6645463705062866
H 5.4789018630981445 -1.0093027353286743 1.6599920988082886
H 11.122701644897461 5.807827472686768 0.0
H 10.825013160705566 9.095194816589355 0.0
