12
Generated by QM7 dataset
C 1.748714804649353 -0.2309812307357788 -0.19122138619422913
C 4.576784610748291 0.07371821999549866 0.21369023621082306
C 5.3433518409729 2.803711175918579 0.15656380355358124
C 6.40220308303833 4.020751476287842 2.1056272983551025
H 1.2348415851593018 -2.2349979877471924 -0.1669006049633026
H 1.1618225574493408 0.5553337931632996 -2.014618158340454
H 0.6723078489303589 0.723349392414093 1.2978827953338623
H 5.598483562469482 -0.9349609017372131 -1.2781351804733276
H 5.106644630432129 -0.8073099255561829 2.0117647647857666
H 5.023043155670166 3.824730157852173 -1.5998421907424927
H 6.768564224243164 3.0834851264953613 3.8934216499328613
H 6.926413059234619 5.998311996459961 1.9483076333999634
