18
Generated by QM7 dataset
C 1.4225291013717651 -1.0680543184280396 0.005688075441867113
N 4.0335259437561035 -0.3827451169490814 -0.6121956706047058
C 5.271221160888672 -2.5014493465423584 -1.8898773193359375
C 4.0498151779174805 1.9213413000106812 -2.1699724197387695
C 6.671848297119141 2.9363510608673096 -2.4897141456604004
C 8.11567497253418 2.617478609085083 -4.924531936645508
O 6.869060039520264 4.941463947296143 -4.309747219085693
H 0.49197131395339966 0.4598081707954407 1.0501964092254639
H 1.3765143156051636 -2.7337722778320312 1.2364856004714966
H 0.30080661177635193 -1.4781060218811035 -1.687619924545288
H 5.180627346038818 -4.208628177642822 -0.7192108631134033
H 7.283949375152588 -2.121368646621704 -2.185940742492676
H 4.404592514038086 -2.9272613525390625 -3.7234785556793213
H 2.9519412517547607 3.3988046646118164 -1.2132419347763062
H 3.1438050270080566 1.5884660482406616 -4.009054183959961
H 7.685365200042725 3.1654045581817627 -0.7296988368034363
H 7.306116104125977 1.4753470420837402 -6.415487766265869
H 10.159111022949219 2.5884523391723633 -4.83681058883667
