21
Generated by QM7 dataset
C 1.6270920038223267 1.8454309701919556 -1.9054486751556396
C 4.43790864944458 1.5715718269348145 -1.9915634393692017
C 5.99504280090332 2.439579725265503 -0.1838892549276352
C 8.867256164550781 2.2535929679870605 -0.10153498500585556
C 9.61679744720459 0.8064595460891724 2.307506799697876
C 10.04128646850586 0.9002466201782227 -2.3944153785705566
C 9.95059871673584 4.949344158172607 0.033108003437519073
H 0.9738892316818237 2.909365653991699 -3.5540456771850586
H 0.9852465391159058 2.8329830169677734 -0.2049974948167801
H 0.7377302050590515 -0.021202728152275085 -1.9412589073181152
H 5.179739475250244 0.6040131449699402 -3.643221855163574
H 5.147122859954834 3.3970096111297607 1.4337540864944458
H 8.894185066223145 1.7382457256317139 4.011472702026367
H 11.67593765258789 0.6811895966529846 2.494929790496826
H 8.869637489318848 -1.1260122060775757 2.2853970527648926
H 9.599468231201172 1.8814680576324463 -4.164295196533203
H 9.363725662231445 -1.050649881362915 -2.5545506477355957
H 12.105490684509277 0.8223332166671753 -2.2339775562286377
H 9.447421073913574 6.045403957366943 -1.6515828371047974
H 12.017334938049316 4.919221878051758 0.16818562150001526
H 9.235677719116211 5.975691795349121 1.6850876808166504
