17
Generated by QM7 dataset
C 1.6365216970443726 0.39434805512428284 -0.5141000151634216
C 4.376775741577148 0.15372921526432037 0.2309812307357788
C 4.87003231048584 0.24309436976909637 3.041003942489624
O 3.7996723651885986 -1.9264624118804932 4.220911026000977
C 6.058121681213379 -1.5278058052062988 -1.3599603176116943
C 6.302293300628662 1.2886987924575806 -1.5597800016403198
O 8.526066780090332 2.3598523139953613 -0.443518728017807
H 1.4005705118179321 0.49382323026657104 -2.568251132965088
H 0.8176844716072083 2.109860420227051 0.2984066605567932
H 0.5514788031578064 -1.2322715520858765 0.1559968888759613
H 4.048379421234131 1.9424116611480713 3.8877902030944824
H 6.890659809112549 0.23226623237133026 3.4821605682373047
H 1.9767669439315796 -1.7435369491577148 4.130204200744629
H 5.220160484313965 -2.537996768951416 -2.9329116344451904
H 7.54282283782959 -2.576660394668579 -0.4114311635494232
H 5.611239433288574 2.1718056201934814 -3.2796196937561035
H 9.998295783996582 2.0816845893859863 -1.5097399950027466
