10
Generated by QM7 dataset
O 1.7397196292877197 0.02023896761238575 -0.010299007408320904
C 4.273275375366211 -0.041025955229997635 -0.0002267671370645985
C 5.842711925506592 2.0224227905273438 0.006935294717550278
O 8.294366836547852 1.241379976272583 0.016383925452828407
C 8.25538158416748 -1.3300271034240723 0.015117809176445007
C 5.806920528411865 -2.210620641708374 0.004969979636371136
H 1.1369537115097046 1.7562925815582275 -0.011943069286644459
H 5.565073490142822 4.044902324676514 0.006689630448818207
H 10.085090637207031 -2.2383615970611572 0.022034207358956337
H 5.214169979095459 -4.1629533767700195 0.0017763425130397081
