18
Generated by QM7 dataset
C 2.04105544090271 1.931300163269043 -1.2484097480773926
C 4.70133638381958 1.6814026832580566 -0.328982412815094
N 6.269998073577881 3.543973445892334 -0.5133630037307739
O 8.607362747192383 2.7818846702575684 0.482314795255661
C 10.340373992919922 4.857843399047852 0.36622893810272217
C 10.081405639648438 6.441037178039551 2.756354570388794
C 12.991905212402344 3.7637486457824707 0.13517211377620697
H 1.6734470129013062 0.4486020803451538 -2.6385679244995117
H 1.7236192226409912 3.782078981399536 -2.106515407562256
H 0.7556447982788086 1.674561858177185 0.347482830286026
H 5.246938228607178 -0.14696399867534637 0.5151015520095825
H 9.953187942504883 6.020516395568848 -1.3067834377288818
H 10.40938663482666 5.290836334228516 4.446506500244141
H 8.165034294128418 7.204807758331299 2.921743392944336
H 11.417082786560059 8.019695281982422 2.7585465908050537
H 13.42939567565918 2.5261292457580566 1.7363560199737549
H 14.417098999023438 5.25908899307251 0.041951920837163925
H 13.143026351928711 2.60192608833313 -1.5715529918670654
