17
Generated by QM7 dataset
C 1.8845293521881104 -0.583320677280426 0.15110249817371368
C 4.686275005340576 0.030481282621622086 -0.12920057773590088
C 5.847833156585693 -1.3202760219573975 -2.3941128253936768
C 5.092358589172363 2.8772404193878174 -0.33616337180137634
N 4.116787433624268 4.2030720710754395 -2.1657962799072266
N 6.542420864105225 4.051005840301514 1.4792776107788086
O 7.459599494934082 6.4034504890441895 0.6801124215126038
H 1.0590592622756958 0.45992153882980347 1.7373764514923096
H 1.6109914779663086 -2.60457181930542 0.5015333294868469
H 0.8133381009101868 -0.08411171287298203 -1.5483659505844116
H 5.657235145568848 -0.630450427532196 1.5793386697769165
H 4.907165050506592 -0.800941526889801 -4.163690090179443
H 5.703798294067383 -3.373331308364868 -2.176189661026001
H 7.851188659667969 -0.8351077437400818 -2.589113712310791
H 3.089721202850342 3.065268039703369 -3.3520150184631348
H 7.831157207489014 2.9961040019989014 2.4374444484710693
H 6.248171806335449 6.858250617980957 -0.6618198752403259
