14
Generated by QM7 dataset
C 1.6053789854049683 0.6579270362854004 1.3973579406738281
C 3.4019227027893066 2.5006744861602783 0.20615021884441376
O 4.513497352600098 1.8709611892700195 -2.0280351638793945
C 3.7871055603027344 -0.2708355486392975 -3.3969149589538574
C 5.47117280960083 -1.6862026453018188 -4.62863826751709
N 3.8680803775787354 4.632172107696533 1.3346946239471436
O 5.5906982421875 6.087998390197754 -0.056880757212638855
H 1.123820185661316 1.2823114395141602 3.310138702392578
H 2.4768452644348145 -1.2096704244613647 1.5412228107452393
H -0.14110584557056427 0.5574880838394165 0.29891687631607056
H 1.7706166505813599 -0.5827915668487549 -3.454684019088745
H 7.471126556396484 -1.2382053136825562 -4.559399127960205
H 4.881237983703613 -3.3019940853118896 -5.741025924682617
H 5.774587154388428 7.594752788543701 0.9859268069267273
