11
Generated by QM7 dataset
C 1.8722083568572998 -0.03928740695118904 0.05158952251076698
C 4.762109756469727 0.0 0.0
C 5.686639308929443 -1.489463210105896 -2.1755661964416504
C 6.444117069244385 -2.6998894214630127 -3.9437451362609863
C 5.672995567321777 2.5722384452819824 0.0
N 6.399047374725342 4.622572422027588 0.0
H 1.1429442167282104 0.9735680222511292 1.7048542499542236
H 1.1556998491287231 -1.981245517730713 0.13097691535949707
H 1.066750407218933 0.85542231798172 -1.6361438035964966
H 5.427898406982422 -0.9325042366981506 1.729023814201355
H 7.122472286224365 -3.7591943740844727 -5.516318321228027
