13
Generated by QM7 dataset
O 2.039543628692627 -0.057296495884656906 0.5638564825057983
C 4.30526876449585 -0.07598588615655899 0.21777203679084778
C 6.282205581665039 2.0367279052734375 -0.13592800498008728
C 8.084720611572266 -0.035961490124464035 -1.1422449350357056
C 6.381850719451904 -2.1456518173217773 0.0031936371233314276
C 5.7751922607421875 -4.209062576293945 -1.680552363395691
C 5.286886692047119 -5.941903591156006 -3.0630381107330322
H 6.864996910095215 2.898291826248169 1.6506379842758179
H 5.763437747955322 3.49550199508667 -1.499119758605957
H 8.22229290008545 -0.05053127557039261 -3.211344003677368
H 10.003284454345703 0.043633777648210526 -0.3726728856563568
H 7.014247894287109 -2.771453380584717 1.876044511795044
H 4.840155601501465 -7.484014511108398 -4.279360294342041
