17
Generated by QM7 dataset
N 2.9798903465270996 -3.8727102279663086 -1.2091602087020874
C 2.917680501937866 -1.6089506149291992 0.37329649925231934
C 5.062897682189941 0.22166487574577332 -0.26287978887557983
C 7.712331295013428 -0.9253233075141907 -0.23141586780548096
C 8.363663673400879 -2.0619935989379883 2.302215576171875
N 7.793173789978027 -4.565143585205078 2.537675380706787
O 9.275872230529785 -0.8560459613800049 4.052347660064697
H 1.3932950496673584 -4.91544246673584 -0.858634889125824
H 2.835156202316284 -3.3454954624176025 -3.0627357959747314
H 3.0100691318511963 -2.1707096099853516 2.3613829612731934
H 1.1044315099716187 -0.6447367668151855 0.10801674425601959
H 4.987932205200195 1.7946162223815918 1.085402011871338
H 4.728359222412109 1.0373084545135498 -2.139925956726074
H 9.119156837463379 0.5377971529960632 -0.6486673951148987
H 7.917971611022949 -2.36019229888916 -1.711203694343567
H 6.531120300292969 -5.361266613006592 1.326134204864502
H 8.009943962097168 -5.348094940185547 4.266510486602783
