14
Generated by QM7 dataset
C 2.2201826572418213 -0.9889314770698547 0.38839539885520935
C 4.62191104888916 0.49696019291877747 -0.10969860106706619
C 4.113499164581299 3.3033735752105713 0.03227652236819267
C 4.25237512588501 4.516880035400391 2.621295928955078
O 4.627863883972168 3.243885040283203 4.510832786560059
N 3.532162666320801 4.526215553283691 -2.0211188793182373
O 3.0774567127227783 7.088589668273926 -1.5733481645584106
H 2.590644359588623 -3.0191776752471924 0.26433488726615906
H 0.7554557919502258 -0.5127394199371338 -0.9932400584220886
H 1.4624212980270386 -0.5827726721763611 2.269617795944214
H 5.342596054077148 0.04522114619612694 -1.9983476400375366
H 6.095349311828613 -0.01982322707772255 1.2477483749389648
H 4.012021064758301 6.580121040344238 2.6729986667633057
H 2.6604321002960205 7.719379901885986 -3.2589271068573
