11
Generated by QM7 dataset
O 2.0042057037353516 0.10916947573423386 0.9519117474555969
C 4.237314224243164 -0.06196412071585655 0.4602994918823242
C 6.308472633361816 1.8070317506790161 -0.2505210041999817
O 8.035191535949707 -0.30333882570266724 -0.4698615074157715
C 6.204443454742432 -2.1767566204071045 0.3466513752937317
C 5.802933216094971 -4.049135208129883 -1.593190312385559
C 5.475160121917725 -5.629154205322266 -3.1902735233306885
H 6.854036808013916 3.1063129901885986 1.2550426721572876
H 6.026809215545654 2.7820358276367188 -2.044532537460327
H 6.699135780334473 -2.937239170074463 2.2048568725585938
H 5.188129901885986 -7.0419697761535645 -4.59757137298584
