17
Generated by QM7 dataset
O 1.6882057189941406 1.0001753568649292 -1.1851606369018555
C 4.266850471496582 0.6903169751167297 -0.4815022051334381
C 5.62112283706665 3.2065062522888184 -0.8186671733856201
C 8.394201278686523 3.0578036308288574 -0.015722520649433136
O 9.65238094329834 1.1756553649902344 -1.4694888591766357
C 9.689570426940918 5.580795764923096 -0.3011467456817627
C 11.804571151733398 6.081025123596191 -1.6029980182647705
H 0.8879823088645935 -0.6473256945610046 -1.0212458372116089
H 5.093076705932617 -0.7771687507629395 -1.6826688051223755
H 4.335220813751221 0.06810572743415833 1.4903136491775513
H 4.6273722648620605 4.671440601348877 0.261292427778244
H 5.473667144775391 3.764580011367798 -2.811553478240967
H 8.513442993164062 2.486180305480957 1.9713056087493896
H 9.604230880737305 1.7383023500442505 -3.218864917755127
H 8.795371055603027 7.139744281768799 0.7037340402603149
H 12.844298362731934 4.622666835784912 -2.606555938720703
H 12.573954582214355 7.98116397857666 -1.6560803651809692
