16
Generated by QM7 dataset
O 3.181108236312866 -0.45406338572502136 -1.680798053741455
C 5.3646111488342285 0.1223219707608223 -0.18916158378124237
C 6.693315505981445 -2.060670852661133 1.0456610918045044
C 7.824429988861084 -0.7564007043838501 -1.2162277698516846
C 9.66096019744873 1.3728293180465698 -0.9648563861846924
N 8.041106224060059 3.603405475616455 -0.6565097570419312
C 5.722676753997803 2.811269998550415 0.6446800827980042
H 1.6486159563064575 0.20059442520141602 -0.9099220037460327
H 5.9175262451171875 -3.935392379760742 0.7681359052658081
H 7.556995868682861 -1.7719961404800415 2.879054546356201
H 7.846010684967041 -1.6761114597320557 -3.0377726554870605
H 10.874505043029785 1.1118959188461304 0.6932271122932434
H 10.852168083190918 1.5694175958633423 -2.6431221961975098
H 8.949932098388672 4.9766316413879395 0.3303997218608856
H 5.964278221130371 2.9106128215789795 2.6986234188079834
H 4.139577388763428 4.022301197052002 0.0978500172495842
