20
Generated by QM7 dataset
C 1.8465081453323364 0.0683513954281807 0.32333213090896606
C 4.721707344055176 0.017347685992717743 0.0029857673216611147
C 5.636240482330322 -2.5192883014678955 -1.0665614604949951
C 5.0837602615356445 -2.793449878692627 -3.8893587589263916
N 6.1245646476745605 -0.6865186095237732 -5.3528571128845215
C 5.097441673278809 1.7320284843444824 -4.481844425201416
C 5.6499409675598145 2.1896257400512695 -1.683764934539795
H 1.2414745092391968 1.8619849681854248 1.1598761081695557
H 1.2308542728424072 -1.4509695768356323 1.5858392715454102
H 0.8487516045570374 -0.15915273129940033 -1.4720966815948486
H 5.546327114105225 0.26267194747924805 1.8910678625106812
H 4.776566028594971 -4.092409610748291 -0.0299521591514349
H 7.684306621551514 -2.6672728061676025 -0.768872857093811
H 5.92466926574707 -4.555524826049805 -4.579940319061279
H 3.046276330947876 -2.950202703475952 -4.230832099914551
H 8.039915084838867 -0.6643521189689636 -5.132968425750732
H 5.949575901031494 3.2505557537078857 -5.600959300994873
H 3.061772108078003 1.8074474334716797 -4.854649543762207
H 7.699065685272217 2.398289203643799 -1.430768370628357
H 4.799054145812988 3.982182025909424 -1.086214542388916
