18
Generated by QM7 dataset
N 1.8391003608703613 -0.15327568352222443 0.21136586368083954
C 4.5970611572265625 -0.08250544220209122 -0.17948618531227112
C 5.319673538208008 -0.032427702099084854 -2.9646968841552734
O 3.9158148765563965 1.908396601676941 -4.20320463180542
C 5.735280990600586 1.98050856590271 1.5699656009674072
C 7.752828121185303 0.016402821987867355 2.341257333755493
C 5.863593578338623 -2.0681917667388916 1.5611217021942139
H 1.2893034219741821 0.0012283220421522856 2.0545103549957275
H 1.017145037651062 -1.7772307395935059 -0.42976152896881104
H 4.8573899269104 -1.8288202285766602 -3.8802690505981445
H 7.33400821685791 0.3348594605922699 -3.2429590225219727
H 2.306713104248047 1.983910083770752 -3.293735980987549
H 4.553767681121826 2.5839171409606934 3.1637794971466064
H 6.472803115844727 3.668034076690674 0.6302803754806519
H 9.462728500366211 0.07271666079759598 1.173633337020874
H 8.301132202148438 0.029215166345238686 4.33259391784668
H 6.70557975769043 -3.701784610748291 0.6137641668319702
H 4.71632194519043 -2.7493436336517334 3.1482837200164795
