13
Generated by QM7 dataset
C 1.7803109884262085 0.04867934435606003 -0.015306781977415085
C 4.584437847137451 0.008503767661750317 -0.0011716302251443267
C 6.189930438995361 2.067171335220337 0.0071053700521588326
N 8.630965232849121 1.2044358253479004 0.019086234271526337
C 8.626202583312988 -1.3822213411331177 0.018424829468131065
C 6.149943828582764 -2.1778714656829834 0.005914842709898949
H 1.0544672012329102 1.9858753681182861 0.002872383687645197
H 1.0365525484085083 -0.9311436414718628 1.6481813192367554
H 1.0545238256454468 -0.8934057950973511 -1.708236813545227
H 5.799739360809326 4.074249744415283 0.005518000107258558
H 10.192294120788574 2.3077147006988525 0.02707977592945099
H 10.379150390625 -2.4337027072906494 0.026853008195757866
H 5.527940273284912 -4.126972675323486 0.0022676712833344936
