16
Generated by QM7 dataset
C 1.9208121299743652 -0.19617247581481934 0.6955893039703369
N 4.631378650665283 -0.2495383322238922 0.1527276635169983
C 5.93903112411499 -2.5223119258880615 0.32180145382881165
C 4.944203853607178 -4.759880065917969 0.9532345533370972
C 5.753535747528076 2.05963134765625 -0.517841637134552
C 8.55125617980957 2.060009241104126 -1.0903531312942505
O 4.568035125732422 4.06166410446167 -0.657416820526123
H 1.1091936826705933 1.693270206451416 0.495656281709671
H 1.6036593914031982 -0.8187616467475891 2.6430842876434326
H 0.9366238713264465 -1.4504404067993164 -0.6231749653816223
H 7.948320388793945 -2.4776766300201416 -0.09597919136285782
H 2.966832160949707 -5.0326619148254395 1.408280611038208
H 6.137906074523926 -6.4276957511901855 1.029466152191162
H 9.626397132873535 1.46958327293396 0.5718500018119812
H 9.144403457641602 3.9796876907348633 -1.581833004951477
H 8.955846786499023 0.8380179405212402 -2.7061634063720703
