13
Generated by QM7 dataset
C 1.9917902946472168 -0.09133046120405197 -0.00876832939684391
C 4.7662672996521 0.1837758719921112 -0.012264322489500046
N 6.134145736694336 2.2660462856292725 -0.016837459057569504
C 8.574575424194336 1.3821834325790405 -0.018273651599884033
C 8.579696655273438 -1.2151695489883423 -0.014607583172619343
N 10.366036415100098 -2.994119882583618 -0.013284774497151375
O 6.136261940002441 -2.0106308460235596 -0.011243870481848717
H 1.0747061967849731 1.7615082263946533 0.014777658507227898
H 1.370278239250183 -1.142547369003296 1.6592739820480347
H 1.363059401512146 -1.1039212942123413 -1.6978811025619507
H 10.175419807434082 2.6475629806518555 -0.02159957028925419
H 12.237885475158691 -2.5949151515960693 -0.026078220456838608
H 9.891034126281738 -4.849887847900391 -0.019199617207050323
