13
Generated by QM7 dataset
C 1.8867592811584473 -0.014097357168793678 -0.010053343139588833
C 4.68075704574585 0.08738093823194504 0.0025511302519589663
C 6.254312992095947 2.170879602432251 -0.011602918617427349
N 8.629018783569336 1.1881463527679443 0.0021542878821492195
O 10.871461868286133 2.5454611778259277 -0.0198043305426836
C 8.455012321472168 -1.3754371404647827 0.02428298071026802
N 6.079060077667236 -2.1112964153289795 0.02724985033273697
H 1.065597653388977 1.8838869333267212 0.007936850190162659
H 1.1985588073730469 -1.0321873426437378 1.6528679132461548
H 1.2136387825012207 -0.9941282272338867 -1.701962947845459
H 5.869545936584473 4.173800468444824 -0.03399617224931717
H 10.235380172729492 4.258970260620117 0.11750317364931107
H 10.098941802978516 -2.586146831512451 0.03507331758737564
