18
Generated by QM7 dataset
C 1.9195271730422974 -0.5195990800857544 1.470717191696167
C 4.682760238647461 -0.23324888944625854 2.2388720512390137
N 5.752307415008545 2.2748522758483887 1.6519986391067505
C 4.50518274307251 4.271669387817383 3.125437021255493
C 8.497776985168457 2.24127197265625 2.1923468112945557
C 9.753538131713867 4.583115100860596 1.1315679550170898
O 11.213955879211426 5.9163923263549805 2.3482491970062256
H 1.335091471672058 -2.4942116737365723 1.67698073387146
H 1.6305313110351562 0.02303576096892357 -0.5047269463539124
H 0.6676402688026428 0.618809700012207 2.6588447093963623
H 5.745258808135986 -1.6731445789337158 1.190055012702942
H 4.890138626098633 -0.6775990724563599 4.25392484664917
H 2.506986379623413 4.431634426116943 2.616269111633301
H 5.326325416564941 6.12738037109375 2.7171616554260254
H 4.642376899719238 3.9363183975219727 5.164149284362793
H 9.400121688842773 0.6403903961181641 1.2348226308822632
H 8.88692855834961 2.0965754985809326 4.221874713897705
H 9.3753662109375 4.976555824279785 -0.8807068467140198
