15
Generated by QM7 dataset
C 3.9479591846466064 -0.6012163758277893 2.818469762802124
C 4.698350429534912 0.08953522145748138 0.12878483533859253
C 5.813270092010498 2.7092626094818115 -0.06816241890192032
C 4.028461456298828 4.893558979034424 0.26529866456985474
C 8.27424144744873 3.0732614994049072 -0.5812419652938843
H 3.2421276569366455 -2.54512095451355 2.881586790084839
H 2.4495575428009033 0.6342676877975464 3.5301218032836914
H 5.564298629760742 -0.4665167033672333 4.104164123535156
H 3.044726848602295 -0.04654395580291748 -1.1128785610198975
H 6.051337718963623 -1.323526382446289 -0.5588108897209167
H 2.458911657333374 4.748805999755859 -1.0748573541641235
H 4.960361003875732 6.712571620941162 -0.05869489535689354
H 3.2576611042022705 4.920109748840332 2.184107780456543
H 9.560672760009766 1.497003197669983 -0.8444241285324097
H 9.070402145385742 4.9566192626953125 -0.7466118931770325
