16
Generated by QM7 dataset
C 1.6552678346633911 0.28557541966438293 -0.08384715020656586
C 4.493144989013672 0.05355484038591385 -0.14953403174877167
C 5.518642902374268 -2.6006221771240234 -0.2983877658843994
N 4.747974872589111 -3.8585562705993652 -2.6268327236175537
C 5.931888103485107 2.150489330291748 0.0
C 8.58884334564209 2.150489330291748 0.0
C 10.837919235229492 2.150489330291748 0.0
H 1.033982515335083 2.23112416267395 0.25842005014419556
H 0.8742628693580627 -0.8857713341712952 1.434358835220337
H 0.8257347345352173 -0.3213668167591095 -1.8794838190078735
H 4.844426155090332 -3.6928839683532715 1.3288553953170776
H 7.583603382110596 -2.6411757469177246 -0.20380696654319763
H 2.873026132583618 -4.277980804443359 -2.532724380493164
H 5.661657333374023 -5.548443794250488 -2.7490413188934326
H 5.029751777648926 3.992008686065674 0.11943069100379944
H 12.850289344787598 2.1475226879119873 -0.01024231594055891
