13
Generated by QM7 dataset
C 0.6638419032096863 2.7395548820495605 0.6650324463844299
C -1.4412940740585327 1.4942253828048706 -0.775770366191864
C -2.571312665939331 -0.8260371088981628 0.18152709305286407
C -0.8729589581489563 -2.686302423477173 0.3914000689983368
C 1.655456781387329 -1.711014747619629 -0.4403628706932068
N 1.2598426342010498 0.9319373369216919 -1.3358851671218872
H 1.0793359279632568 4.698879718780518 0.2394471913576126
H 1.0287858247756958 2.1967878341674805 2.6052331924438477
H -2.4379355907440186 2.5336503982543945 -2.2289886474609375
H -4.553370475769043 -0.9910857677459717 0.6487429738044739
H -1.2322715520858765 -4.5800347328186035 1.0506877899169922
H 3.0346922874450684 -1.780518889427185 1.101351261138916
H 2.3677890300750732 -2.85208797454834 -2.012010335922241
