12
Generated by QM7 dataset
C 1.9683387279510498 0.0236026793718338 -0.2869549095630646
C 4.455993175506592 -0.07806458324193954 0.10136491060256958
C 6.035653114318848 -2.286303997039795 0.3708965480327606
C 8.40674877166748 -1.4777657985687256 0.7313240170478821
N 8.500970840454102 1.1104786396026611 0.7183037996292114
C 6.140438079833984 2.1859219074249268 0.33933812379837036
O 5.5742950439453125 4.405575275421143 0.22746632993221283
H 1.0156899690628052 1.834810733795166 -0.4546303153038025
H 0.8318763375282288 -1.6714627742767334 -0.44571080803871155
H 5.4017252922058105 -4.219796180725098 0.29292646050453186
H 10.092857360839844 -2.597409725189209 1.005768895149231
H 10.07155990600586 2.1692922115325928 0.9514393210411072
