16
Generated by QM7 dataset
C 3.82524037361145 -0.9932400584220886 -2.4859914779663086
C 4.682023048400879 -0.11196627467870712 0.10695850104093552
N 6.02142333984375 2.2585818767547607 -0.036471713334321976
C 8.514557838439941 2.411630630493164 -0.6495555639266968
O 9.936141967773438 0.6177514791488647 -0.9496818780899048
O 9.156686782836914 4.876419544219971 -0.9148920178413391
C 11.724956512451172 5.25988245010376 -1.6464049816131592
H 2.7909932136535645 -2.7773115634918213 -2.3387250900268555
H 5.439350128173828 -1.2824625968933105 -3.74830961227417
H 2.5835013389587402 0.40846431255340576 -3.367189645767212
H 5.911989212036133 -1.5370843410491943 0.9669350385665894
H 3.048222780227661 0.17326898872852325 1.3423103094100952
H 5.069152355194092 3.912602424621582 -0.009297452867031097
H 12.00212287902832 7.2815117835998535 -1.9717402458190918
H 12.145572662353516 4.256721496582031 -3.4064013957977295
H 12.9999361038208 4.655869483947754 -0.13452960550785065
