17
Generated by QM7 dataset
C 1.945907711982727 0.007218753919005394 0.2774495780467987
C 4.79075813293457 0.07883937656879425 -0.14471523463726044
C 5.7320685386657715 -2.215496063232422 -1.6901899576187134
N 6.78657341003418 -1.2286810874938965 -4.119584083557129
C 6.563963890075684 1.205191731452942 -3.9017553329467773
N 5.436817646026611 2.166778802871704 -1.8068805932998657
C 6.056969165802002 4.615013599395752 -0.7780380249023438
H 1.3076337575912476 1.7013393640518188 1.2783241271972656
H 1.4122679233551025 -1.6456868648529053 1.401099681854248
H 0.9149487018585205 -0.0750221312046051 -1.5172799825668335
H 5.794070243835449 0.188878133893013 1.6644896268844604
H 4.230189800262451 -3.5813710689544678 -2.0859174728393555
H 7.241902828216553 -3.197303295135498 -0.6699268221855164
H 7.241335868835449 2.5706701278686523 -5.318482875823975
H 5.0292792320251465 4.967806339263916 0.9841882586479187
H 5.5435872077941895 6.102511405944824 -2.1177215576171875
H 8.080979347229004 4.752396583557129 -0.3860521614551544
