19
Generated by QM7 dataset
C 1.5614240169525146 -0.07522999495267868 -0.2590625584125519
C 4.315586566925049 -0.6180727481842041 -0.4740377962589264
C 5.580418109893799 -0.6986695528030396 -3.029193162918091
N 5.999823570251465 1.410888433456421 -1.2918168306350708
C 8.466407775878906 1.3377748727798462 -0.01458868570625782
C 10.251575469970703 3.302088499069214 -1.19882333278656
N 12.71094036102295 3.361614942550659 0.07694964855909348
H 1.1646193265914917 0.9072763919830322 1.5178091526031494
H 0.4875682294368744 -1.8430688381195068 -0.26762300729751587
H 0.8679512143135071 1.1024662256240845 -1.8137969970703125
H 4.970489978790283 -1.8973795175552368 0.9854543805122375
H 4.467350482940674 -0.2673773467540741 -4.692549228668213
H 7.088494777679443 -2.049710273742676 -3.332437515258789
H 9.358036994934082 -0.5365121364593506 -0.07432293146848679
H 8.184706687927246 1.8031388521194458 1.9868769645690918
H 9.401350021362305 5.188507556915283 -1.0926207304000854
H 10.55531120300293 2.8644089698791504 -3.1997976303100586
H 12.457622528076172 3.895556926727295 1.9108532667160034
H 13.791523933410645 4.737581253051758 -0.7299256324768066
