20
Generated by QM7 dataset
C 2.7160089015960693 -0.5020246505737305 -0.5719823241233826
N 5.340498447418213 0.26769861578941345 -0.25700274109840393
C 5.581759452819824 3.0285696983337402 -0.34710490703582764
C 8.34461498260498 3.8186452388763428 0.07717641443014145
C 8.74740982055664 6.648850440979004 -0.08979978412389755
C 7.501759052276611 8.24349594116211 1.90388023853302
C 10.209793090820312 7.683286190032959 -1.8899528980255127
H 2.5904366970062256 -2.5653977394104004 -0.5057663321495056
H 1.9519548416137695 0.1247597187757492 -2.38969087600708
H 1.5315096378326416 0.24099677801132202 0.9533857107162476
H 6.40360164642334 -0.5101882815361023 -1.664092779159546
H 4.388888835906982 3.8672866821289062 1.1241791248321533
H 4.928386688232422 3.7390687465667725 -2.1816699504852295
H 9.546650886535645 2.852125883102417 -1.312943935394287
H 8.98381519317627 3.1664817333221436 1.9403140544891357
H 5.444206714630127 8.180473327636719 1.7083123922348022
H 8.079448699951172 10.226914405822754 1.7806510925292969
H 8.008810997009277 7.562173843383789 3.7902047634124756
H 11.146001815795898 6.534654140472412 -3.30900502204895
H 10.526360511779785 9.708316802978516 -1.9840234518051147
