19
Generated by QM7 dataset
C 1.6970874071121216 -0.05829805135726929 0.060679107904434204
C 4.546662330627441 -0.28793758153915405 -0.3821593225002289
C 5.033568859100342 -1.8332421779632568 -2.7773303985595703
C 5.737473011016846 2.35488224029541 -0.5529716610908508
C 8.601617813110352 2.3670332431793213 -0.33266738057136536
C 9.864237785339355 4.9074296951293945 -0.5933362245559692
O 9.849535942077637 0.4619624614715576 0.129975363612175
H 1.305177092552185 0.9792560935020447 1.8074474334716797
H 0.8264339566230774 -1.927728533744812 0.23137806355953217
H 0.7726523280143738 0.9398741722106934 -1.4994598627090454
H 5.360264778137207 -1.3092023134231567 1.2280007600784302
H 4.277073860168457 -0.8830690383911133 -4.4535932540893555
H 4.133926868438721 -3.6944146156311035 -2.6425929069519043
H 7.056369781494141 -2.144442319869995 -3.080348014831543
H 5.027522087097168 3.5384743213653564 0.993561327457428
H 5.217949390411377 3.258662700653076 -2.342334508895874
H 9.17841911315918 5.860267639160156 -2.2941274642944336
H 11.909205436706543 4.6572489738464355 -0.7632603645324707
H 9.453052520751953 6.052811622619629 1.0763691663742065
