13
Generated by QM7 dataset
O 1.7136225700378418 -0.2859722673892975 0.40366441011428833
C 4.019296169281006 -0.19430163502693176 0.16748642921447754
C 5.344788074493408 2.3045966625213623 -0.24337783455848694
C 8.197121620178223 2.360116720199585 0.05346035212278366
C 9.41064739227295 -0.16257314383983612 -0.07878268510103226
C 8.047871589660645 -2.273378372192383 -0.05799569562077522
O 5.4198479652404785 -2.3542208671569824 0.11495204269886017
H 4.521661281585693 3.659813642501831 1.0955687761306763
H 4.837623119354248 2.936880111694336 -2.149695873260498
H 8.697502136230469 3.2405779361724854 1.859188199043274
H 8.994869232177734 3.573944568634033 -1.422245740890503
H 11.46088695526123 -0.26365458965301514 -0.15983304381370544
H 8.816404342651367 -4.168074607849121 -0.11731419712305069
