14
Generated by QM7 dataset
C 15.16066837310791 2.2036285400390625 -4.991786956787109
O 14.569127082824707 0.7122188806533813 -2.8281452655792236
N 12.239945411682129 1.5629924535751343 -1.852989912033081
C 10.265426635742188 -0.07776223123073578 -1.6345564126968384
O 8.450874328613281 0.4192357361316681 -0.27359455823898315
C 10.37053394317627 -2.4204180240631104 -3.1846041679382324
C 8.421469688415527 -4.033034801483154 -3.2144620418548584
H 13.715349197387695 1.96537184715271 -6.453527927398682
H 16.975353240966797 1.5640885829925537 -5.744654178619385
H 15.3267183303833 4.1974406242370605 -4.467728137969971
H 12.341310501098633 2.8909785747528076 -0.475776344537735
H 12.055998802185059 -2.7986276149749756 -4.2765069007873535
H 6.716464519500732 -3.6814699172973633 -2.1237120628356934
H 8.492636680603027 -5.747696399688721 -4.335806369781494
