12
Generated by QM7 dataset
N 2.1242599487304688 -0.058827172964811325 0.5013443231582642
C 4.75190544128418 -0.08363927900791168 0.3229731023311615
C 5.943113327026367 -2.654630661010742 0.6116287708282471
O 4.622610092163086 -4.568922996520996 0.6020100712776184
C 6.097069263458252 2.0272982120513916 -0.0775921568274498
C 8.868560791015625 2.2653846740722656 -0.3668714463710785
O 10.312783241271973 0.48371320962905884 -0.6165231466293335
H 1.27373206615448 1.1497849225997925 -0.7226690649986267
H 1.4373635053634644 -1.8652353286743164 0.3254486322402954
H 7.9999098777771 -2.75251841545105 0.8515105843544006
H 5.1147894859313965 3.823652982711792 -0.2090792953968048
H 9.5573091506958 4.233307838439941 -0.3745437264442444
