12
Generated by QM7 dataset
C 2.2222235202789307 -0.6078304052352905 -0.4302339553833008
C 4.5974202156066895 -0.8164939880371094 0.399714857339859
N 6.49536657333374 0.9121897220611572 0.06357038766145706
C 8.965068817138672 0.8458980917930603 0.8473343253135681
N 10.158241271972656 -0.8586159944534302 2.1077628135681152
C 10.56778335571289 2.9926836490631104 0.20140701532363892
N 11.720346450805664 4.769555568695068 -0.3860332667827606
H 0.8542885184288025 -2.093344211578369 -0.060849182307720184
H 1.5717041492462158 1.0238914489746094 -1.4876680374145508
H 5.138108730316162 -2.498236894607544 1.4503270387649536
H 5.9686055183410645 2.477752208709717 -0.9214493632316589
H 8.96433162689209 -2.3183159828186035 2.5153956413269043
