20
Generated by QM7 dataset
C 2.541322708129883 0.33941370248794556 2.354390859603882
C 3.8097822666168213 0.7272233366966248 -0.19581341743469238
C 6.136772155761719 2.3193743228912354 0.04227317497134209
N 6.763575553894043 4.165806770324707 -1.9115524291992188
C 5.938445568084717 5.122612953186035 0.5409529805183411
C 7.82448673248291 6.3546576499938965 2.2614729404449463
C 7.423637866973877 9.19497299194336 2.4143896102905273
H 0.9104889631271362 -0.9188793301582336 2.1642656326293945
H 1.8765547275543213 2.1380550861358643 3.128365993499756
H 3.8514697551727295 -0.4915555715560913 3.720284938812256
H 2.4454379081726074 1.5771276950836182 -1.50594162940979
H 4.336241245269775 -1.1154297590255737 -0.9859834909439087
H 7.717622756958008 1.2940655946731567 0.8477878570556641
H 5.352233409881592 4.326169013977051 -3.218109130859375
H 4.069279670715332 5.951163291931152 0.6529003977775574
H 9.761210441589355 5.971742630004883 1.631797432899475
H 7.633303165435791 5.544947624206543 4.159910678863525
H 7.552328109741211 10.06672191619873 0.5441277623176575
H 8.849379539489746 10.05906867980957 3.63891339302063
H 5.557929992675781 9.633597373962402 3.1928813457489014
