16
Generated by QM7 dataset
C 5.755519866943359 -2.3618552684783936 0.13861140608787537
O 7.428475856781006 -0.6620844602584839 1.3786875009536743
N 7.581581115722656 1.5584949254989624 -0.06260662525892258
C 9.105758666992188 3.113569498062134 1.0472862720489502
C 9.701362609863281 5.662205219268799 0.02976318635046482
C 8.462174415588379 6.445175647735596 -2.384702205657959
C 11.315226554870605 7.112078666687012 1.3392300605773926
H 5.608763694763184 -4.080239772796631 1.2756218910217285
H 6.4947052001953125 -2.8579461574554443 -1.727871060371399
H 3.8760173320770264 -1.5176390409469604 -0.03894725441932678
H 10.047560691833496 2.5967860221862793 2.838897705078125
H 8.976841926574707 5.155267238616943 -3.9185550212860107
H 9.030244827270508 8.35241985321045 -2.9538686275482178
H 6.403072357177734 6.441169261932373 -2.180366039276123
H 12.18421745300293 6.487146377563477 3.0896644592285156
H 11.815984725952148 8.990806579589844 0.6823989748954773
