15
Generated by QM7 dataset
C 1.6793807744979858 0.012377706356346607 0.18912379443645477
C 4.214486122131348 0.01999330334365368 -0.022072000429034233
C 5.664076328277588 2.437690019607544 -0.2252553552389145
N 8.19621467590332 2.064166784286499 0.7086851000785828
C 9.403768539428711 -0.08617151528596878 -0.014664274640381336
N 8.394012451171875 -2.2232816219329834 -0.506371021270752
C 5.670047760009766 -2.4264273643493652 -0.04622270166873932
H 0.5906150341033936 1.7509446144104004 0.2066982388496399
H 0.6309228539466858 -1.746843934059143 0.3348594605922699
H 4.759161949157715 3.9484126567840576 0.8637937903404236
H 5.746524810791016 3.0384716987609863 -2.2059717178344727
H 9.265119552612305 3.653294086456299 0.6762573719024658
H 11.466083526611328 0.16215740144252777 -0.19420716166496277
H 4.883241176605225 -3.661249876022339 -1.5122910737991333
H 5.407791614532471 -3.3905844688415527 1.7705222368240356
