14
Generated by QM7 dataset
C 1.7129422426223755 0.13006985187530518 0.4232608675956726
C 4.527632713317871 -0.17604689300060272 0.1264982670545578
C 5.559063911437988 -2.4908292293548584 -0.09480755776166916
C 6.126397609710693 2.2027971744537354 0.06309795379638672
O 5.313437461853027 3.7232518196105957 -2.02295184135437
C 6.001297950744629 3.605654239654541 2.478243589401245
N 5.855713367462158 4.744497776031494 4.354855060577393
H 1.2606173753738403 1.0948506593704224 2.1956539154052734
H 0.735084593296051 -1.6944607496261597 0.44816744327545166
H 0.9298208355903625 1.227584958076477 -1.145249605178833
H 4.407332897186279 -4.190845489501953 -0.06100035831332207
H 7.5809197425842285 -2.7611732482910156 -0.32998397946357727
H 8.10584831237793 1.7214082479476929 -0.31263628602027893
H 3.8318543434143066 4.6610283851623535 -1.4729470014572144
