16
Generated by QM7 dataset
O 2.16606068611145 0.3855797350406647 0.5579605102539062
C 4.741115093231201 -0.08552900701761246 -0.05406506359577179
C 5.131229877471924 -2.830941915512085 -0.9677098393440247
N 5.231234550476074 -2.776517868041992 -3.7662429809570312
C 5.90546989440918 -0.1820373237133026 -4.473794460296631
C 3.933842897415161 1.8459789752960205 -4.562082290649414
C 5.552525520324707 1.5258405208587646 -2.2379837036132812
H 1.8925607204437256 2.1910240650177 0.37652793526649475
H 5.885627746582031 0.29381462931632996 1.6294541358947754
H 3.649117946624756 -4.112667560577393 -0.310481995344162
H 6.964453220367432 -3.515174150466919 -0.27962276339530945
H 6.501205921173096 -4.077915668487549 -4.398281097412109
H 7.575534343719482 0.058222461491823196 -5.6386027336120605
H 4.287014007568359 3.465663194656372 -5.763041019439697
H 1.968036413192749 1.2717289924621582 -4.496584415435791
H 7.008880615234375 2.8874826431274414 -1.804348349571228
