19
Generated by QM7 dataset
C 2.3800911903381348 0.31172922253608704 0.19023872911930084
C 1.709767460823059 -0.024169597774744034 2.9252772331237793
C 0.393081933259964 -2.392733335494995 3.8030171394348145
C 3.0938785076141357 -1.9106643199920654 4.545868396759033
C 4.829799652099609 1.705723524093628 -0.1324131041765213
C 7.208454608917236 0.30309316515922546 -0.8325944542884827
C 5.95619010925293 2.007380485534668 -2.729879379272461
H 2.4572298526763916 -1.523875117301941 -0.7758270502090454
H 0.8683291673660278 1.3967533111572266 -0.7246533036231995
H 1.1560399532318115 1.7465604543685913 3.7950801849365234
H 0.03153952956199646 -3.885371446609497 2.449368476867676
H -1.0467193126678467 -2.2073323726654053 5.247089385986328
H 3.4789481163024902 -1.3927470445632935 6.491492748260498
H 4.550347328186035 -3.064398765563965 3.6827549934387207
H 4.985683441162109 3.312784433364868 1.1296026706695557
H 7.10680627822876 -1.71692955493927 -1.1526762247085571
H 8.968791007995605 0.9269862771034241 0.0077667743898928165
H 6.873066425323486 3.786198616027832 -3.172358751296997
H 5.001292705535889 1.1409599781036377 -4.320499897003174
