15
Generated by QM7 dataset
C 1.889726161956787 0.0 0.0
C 4.618490695953369 0.0 0.0
C 6.86756706237793 0.0 0.0
C 9.589471817016602 0.13783662021160126 -0.1314871460199356
C 10.871253967285156 2.082648277282715 1.5936059951782227
C 12.516034126281738 -0.14309006929397583 2.4023900032043457
O 10.756509780883789 -1.918412208557129 1.2733919620513916
H 1.1451551914215088 1.9291647672653198 0.022204281762242317
H 1.1451362371444702 -0.9837347269058228 1.6596519947052002
H 1.1450228691101074 -0.9453732967376709 -1.6817429065704346
H 10.308664321899414 0.15656380355358124 -2.0764877796173096
H 9.696657180786133 2.859306812286377 3.108278274536133
H 11.864097595214844 3.613231897354126 0.6231182813644409
H 14.372538566589355 -0.2553775906562805 1.499667763710022
H 12.698676109313965 -0.41859322786331177 4.442406177520752
