16
Generated by QM7 dataset
O 2.884326696395874 1.3005095720291138 5.242931842803955
C 4.568658828735352 2.1374502182006836 3.8998656272888184
N 6.405982494354248 0.6579270362854004 2.8529763221740723
C 8.42543888092041 1.6288683414459229 1.2334431409835815
C 10.687912940979004 2.7989866733551025 2.6711089611053467
C 12.414385795593262 1.5570964813232422 0.677750289440155
C 10.295984268188477 -0.4040990471839905 0.27185600996017456
H 4.748522758483887 4.156225681304932 3.4199695587158203
H 6.246168613433838 -1.2013367414474487 3.2871220111846924
H 7.695815086364746 2.8371403217315674 -0.2861612141132355
H 10.972732543945312 2.063713312149048 4.5875935554504395
H 10.74074935913086 4.863229274749756 2.7300305366516113
H 12.773452758789062 2.7520837783813477 -0.9755333065986633
H 14.208850860595703 0.8134515285491943 1.377837061882019
H 10.021671295166016 -1.0227386951446533 -1.6800987720489502
H 10.470783233642578 -2.073237419128418 1.4874601364135742
