13
Generated by QM7 dataset
C 3.861863136291504 -0.24392585456371307 -0.22107906639575958
C 1.4871388673782349 -1.6363327503204346 0.20607464015483856
N -0.816626250743866 -2.4268429279327393 -1.0765959024429321
C -2.7890846729278564 -0.8286827206611633 -0.3852017819881439
N -2.6987369060516357 1.3798402547836304 0.7123322486877441
O -0.1889537125825882 2.2884016036987305 1.322354793548584
C 1.5428857803344727 1.2499215602874756 -0.4935397803783417
H 4.928783893585205 -0.6862918138504028 -1.9131965637207031
H 5.057360649108887 0.1594173014163971 1.3932384252548218
H 1.3395512104034424 -2.1876604557037354 2.1907594203948975
H -1.2542301416397095 -4.291473388671875 -1.190489649772644
H -4.646458625793457 -1.6284714937210083 -0.8869996666908264
H 1.220574140548706 1.8531221151351929 -2.4355547428131104
