14
Generated by QM7 dataset
C 5.800854682922363 -2.05400013923645 0.8088027834892273
N 4.561137676239014 0.17840903997421265 -0.1686202585697174
C 5.739835262298584 2.4314539432525635 -0.08207080513238907
C 4.847449779510498 4.854101657867432 -0.4014912247657776
C 6.950204849243164 6.484765529632568 -0.11088912934064865
C 8.98929500579834 4.946187973022461 0.36396124958992004
O 8.268874168395996 2.4836103916168213 0.3838600814342499
H 4.604374408721924 -3.7084553241729736 0.4763432741165161
H 6.116042137145996 -1.8934677839279175 2.8477606773376465
H 7.610191822052002 -2.3925445079803467 -0.13683506846427917
H 2.6463725566864014 0.14949622750282288 -0.07625044882297516
H 2.9166600704193115 5.37800931930542 -0.8038139343261719
H 6.978456020355225 8.522645950317383 -0.23821887373924255
H 10.973941802978516 5.285091400146484 0.7063418626785278
