14
Generated by QM7 dataset
C 1.7405133247375488 0.4442746043205261 -0.38488051295280457
O 4.43635892868042 0.3914945721626282 -0.5947723984718323
C 5.752798557281494 2.5199875831604004 -0.26934266090393066
N 8.192075729370117 2.521801710128784 -0.27542757987976074
O 8.945698738098145 5.055962085723877 0.1552598923444748
C 6.803240776062012 6.621487140655518 -0.3628652095794678
C 4.537326812744141 4.988631248474121 0.19330008327960968
H 1.0602308511734009 -1.5064330101013184 -0.4361865818500519
H 0.9245296120643616 1.4649345874786377 -1.986045479774475
H 1.158080816268921 1.2894923686981201 1.4095655679702759
H 6.875636100769043 7.190256595611572 -2.352482318878174
H 6.864146709442139 8.314001083374023 0.821274995803833
H 2.955796241760254 5.407243251800537 -1.0595505237579346
H 3.967404365539551 5.108572483062744 2.1760008335113525
