17
Generated by QM7 dataset
C 4.331554889678955 -0.9998918771743774 -2.8639934062957764
C 4.854593276977539 0.09514771401882172 -0.2632577419281006
O 6.300290107727051 -1.693100094795227 1.150162935256958
C 6.3512372970581055 2.552339792251587 -0.4714488685131073
C 4.89750862121582 4.96164608001709 -1.1699295043945312
C 6.012352466583252 6.030304908752441 1.2643591165542603
O 6.894306659698486 3.556407928466797 2.0416412353515625
H 3.21272349357605 0.3002396821975708 -4.020033359527588
H 3.3110079765319824 -2.7932798862457275 -2.704198122024536
H 6.0973334312438965 -1.4038586616516113 -3.8684773445129395
H 3.0725624561309814 0.39361104369163513 0.747367799282074
H 6.909405708312988 -0.773975133895874 2.632237434387207
H 8.128335952758789 2.323021411895752 -1.5194721221923828
H 2.8387088775634766 4.793082237243652 -1.1584588289260864
H 5.518472671508789 5.892449378967285 -2.9041500091552734
H 7.591653347015381 7.34368371963501 1.0209434032440186
H 4.640411376953125 6.8114800453186035 2.5975229740142822
