12
Generated by QM7 dataset
C 1.6278289556503296 0.15590240061283112 -0.18833011388778687
C 4.4445414543151855 -0.05655950307846069 -0.12084798514842987
N 5.825099468231201 -2.082629442214966 -0.15371032059192657
N 4.54543399810791 -4.299996376037598 -0.25768306851387024
C 5.9724040031433105 2.1937642097473145 0.017102021723985672
C 7.240107536315918 4.074967861175537 0.13124148547649384
H 1.0377053022384644 2.136127471923828 -0.2150508314371109
H 0.8252434134483337 -0.7532826066017151 1.4855514764785767
H 0.8969585299491882 -0.7778490781784058 -1.880976676940918
H 5.8077521324157715 -5.738285541534424 -0.5429372191429138
H 3.7266533374786377 -4.699389934539795 1.4478325843811035
H 8.38223934173584 5.729252815246582 0.22833560407161713
