17
Generated by QM7 dataset
C 5.3452606201171875 -1.749432921409607 -0.7802112102508545
O 5.126637935638428 0.035375673323869705 1.2216511964797974
C 5.586521625518799 2.5885846614837646 0.4082942306995392
C 4.384580135345459 4.336449146270752 2.404392957687378
O 5.207801818847656 3.6818478107452393 4.896866321563721
C 8.396430969238281 3.008368492126465 0.23415596783161163
C 9.619820594787598 3.7231194972991943 -1.86455500125885
H 4.902761936187744 -3.618523120880127 -0.02277120016515255
H 7.269776344299316 -1.791290283203125 -1.5295065641403198
H 3.9990761280059814 -1.317063570022583 -2.2873623371124268
H 4.6526570320129395 2.93759822845459 -1.4105483293533325
H 2.327651262283325 4.11395263671875 2.382491111755371
H 4.8347697257995605 6.324100971221924 2.058100700378418
H 5.213395118713379 1.8333934545516968 4.919637203216553
H 9.469209671020508 2.7024216651916504 1.9619325399398804
H 8.638731956481934 4.052574157714844 -3.6353983879089355
H 11.654961585998535 3.9908559322357178 -1.8446561098098755
