9
Generated by QM7 dataset
N 1.7119406461715698 0.06648056209087372 -0.008447076193988323
C 3.90468430519104 0.04395502805709839 -0.004497548099607229
C 6.582464218139648 0.013813897967338562 0.00032125343568623066
C 8.15532112121582 2.0682296752929688 0.003590479725971818
O 10.593842506408691 1.2657008171081543 0.007804568856954575
N 10.642937660217285 -1.3585808277130127 0.007351034786552191
C 8.219987869262695 -2.0711586475372314 0.002834589220583439
H 7.891024112701416 4.092504501342773 0.0035337877925485373
H 7.779737949371338 -4.066709518432617 0.0016062671784311533
