17
Generated by QM7 dataset
C 1.8615503311157227 -0.012264322489500046 -0.062020812183618546
C 4.729889869689941 -0.2032967358827591 -0.026871904730796814
C 5.962161540985107 2.4162604808807373 -0.05691855028271675
C 8.814325332641602 2.293484926223755 0.053687117993831635
C 10.119068145751953 3.2452077865600586 2.0099315643310547
C 10.179293632507324 1.1960455179214478 -1.997723937034607
C 11.321046829223633 0.25670039653778076 -3.7198503017425537
H 1.01748526096344 -1.900308609008789 -0.028818324208259583
H 1.2048894166946411 0.9543116688728333 -1.769161581993103
H 1.1668680906295776 1.0304298400878906 1.5839495658874512
H 5.342142581939697 -1.3065189123153687 -1.6706123352050781
H 5.3203349113464355 -1.2475594282150269 1.6629211902618408
H 5.232047080993652 3.521674633026123 1.539786696434021
H 5.397549152374268 3.4374685287475586 -1.7716749906539917
H 9.175508499145508 4.123363494873047 3.6043124198913574
H 12.169912338256836 3.1763651371002197 2.06758713722229
H 12.336132049560547 -0.5790120959281921 -5.241703510284424
