15
Generated by QM7 dataset
C -2.7981929779052734 1.5642207860946655 0.9964525699615479
C -2.1942555904388428 -0.7762427926063538 -0.5039143562316895
C -0.45321300625801086 -2.6752853393554688 0.5621557235717773
C 2.0424726009368896 -2.2796711921691895 0.8544396758079529
C 3.158639430999756 0.1247597187757492 0.1611747443675995
C 1.7176854610443115 1.998876690864563 -0.7755247354507446
C -1.0240614414215088 1.751511573791504 -1.220215082168579
H -4.670363426208496 2.3693385124206543 0.7885071039199829
H -2.036576747894287 1.7473541498184204 2.890657424926758
H -3.6436376571655273 -1.5235728025436401 -1.7446140050888062
H -1.2550616264343262 -4.482146739959717 1.1175651550292969
H 3.263160228729248 -3.726710081100464 1.6404145956039429
H 5.173333168029785 0.37643343210220337 0.4478084146976471
H 2.592458486557007 3.7913763523101807 -1.260447382926941
H -1.7136414051055908 2.658334493637085 -2.9234631061553955
