12
Generated by QM7 dataset
C 6.226383209228516 -2.5090081691741943 0.7327790856361389
C 4.793649196624756 -0.07780002802610397 0.36626672744750977
O 2.470949172973633 -0.02386724017560482 0.33788302540779114
C 6.186245441436768 2.3365330696105957 0.026701830327510834
C 8.710163116455078 2.538809299468994 0.01678076758980751
C 9.919285774230957 4.911889553070068 -0.31819209456443787
N 10.917060852050781 6.843397617340088 -0.590671718120575
H 7.380023002624512 -2.405111074447632 2.443037986755371
H 7.400847911834717 -2.8995580673217773 -0.9209202527999878
H 4.882598876953125 -4.065462112426758 0.9535747170448303
H 4.9743828773498535 3.977722406387329 -0.2209467738866806
H 9.94421100616455 0.9242461323738098 0.2604420483112335
