15
Generated by QM7 dataset
C 1.5607248544692993 -0.26246407628059387 -0.6904681324958801
C 4.041311740875244 -1.1027685403823853 0.4063100218772888
C 4.288393497467041 -3.335026502609253 1.5907903909683228
C 6.144690036773682 0.7849355340003967 0.13976414501667023
O 5.672202110290527 3.0140187740325928 -0.3010144829750061
C 8.79720401763916 -0.1398775279521942 0.33370673656463623
C 10.723251342773438 1.5018409490585327 0.3683265149593353
H 0.8625844120979309 1.420374870300293 0.2908666431903839
H 0.1071096807718277 -1.7272664308547974 -0.5297658443450928
H 1.7733757495880127 0.18347351253032684 -2.7001163959503174
H 2.69055438041687 -4.615013599395752 1.7553287744522095
H 6.0227460861206055 -3.956973075866699 2.4848763942718506
H 9.155704498291016 -2.1503381729125977 0.396445631980896
H 10.40846061706543 3.530008316040039 0.2767125964164734
H 12.662790298461914 0.8493185043334961 0.48116207122802734
