14
Generated by QM7 dataset
C 5.199902534484863 5.863839149475098 -2.129267930984497
C 4.276582717895508 3.73661208152771 -1.1272594928741455
O 5.535442352294922 1.7403433322906494 -0.0843762755393982
C 8.240774154663086 1.7966192960739136 -0.07798899710178375
O 9.240987777709961 3.5578818321228027 1.716362714767456
N 11.896581649780273 3.49206280708313 1.6028468608856201
C 12.7803316116333 4.973305702209473 3.324387311935425
H 3.920879364013672 7.278261184692383 -2.886991262435913
H 7.202464580535889 6.285455703735352 -2.2142677307128906
H 2.2593376636505127 3.3742761611938477 -1.0418059825897217
H 8.970019340515137 2.1847312450408936 -1.9807542562484741
H 8.869165420532227 -0.10009879618883133 0.46360650658607483
H 14.837071418762207 5.187524795532227 3.551948070526123
H 11.56453800201416 6.063885688781738 4.619379043579102
