17
Generated by QM7 dataset
C 1.9463423490524292 0.09218084067106247 -0.03044348768889904
C 4.832048416137695 -0.0801432877779007 0.03955196961760521
C 5.717933177947998 -1.5232515335083008 2.384777784347534
N 5.740307807922363 -1.4204126596450806 -2.229631185531616
C 5.91234827041626 2.598241090774536 -0.016969740390777588
N 6.358456134796143 3.873277187347412 2.028639793395996
O 7.240976810455322 6.277575492858887 1.3652704954147339
H 1.2890955209732056 1.1409788131713867 -1.6926466226577759
H 1.2218213081359863 1.0867059230804443 1.6365216970443726
H 1.073931336402893 -1.7856022119522095 -0.07441741228103638
H 5.037235260009766 -0.6271812319755554 4.124213695526123
H 7.786257266998291 -1.5847243070602417 2.4955344200134277
H 5.021833896636963 -3.4744315147399902 2.3833982944488525
H 4.917539596557617 -0.6804714798927307 -3.8072879314422607
H 5.1673994064331055 -3.2595319747924805 -2.1571035385131836
H 6.182390213012695 3.470236301422119 -1.8968125581741333
H 7.583301067352295 7.040099143981934 3.008424997329712
