13
Generated by QM7 dataset
C 10.268866539001465 -3.6345670223236084 -0.00455424003303051
C 8.73210334777832 -1.992413878440857 -0.002494438551366329
C 6.86756706237793 0.0 0.0
C 8.368255615234375 2.3927712440490723 0.20815333724021912
C 9.313949584960938 3.735535144805908 -2.1219735145568848
N 7.226501941680908 4.771180629730225 -0.6473634839057922
H 11.641865730285645 -5.108043193817139 -0.008825020864605904
H 5.590792655944824 -0.1711335927248001 1.6190606355667114
H 5.720427989959717 -0.04535342752933502 -1.7226743698120117
H 9.461159706115723 2.5143184661865234 1.9378197193145752
H 8.824812889099121 2.9825925827026367 -3.9627935886383057
H 11.101252555847168 4.727357864379883 -2.021817922592163
H 7.825072288513184 6.248039245605469 0.4444635808467865
