14
Generated by QM7 dataset
C 2.8039567470550537 -0.8671386241912842 -1.8015704154968262
N 5.287775039672852 -0.5932039022445679 -0.622664749622345
N 6.0760931968688965 1.8301619291305542 -0.31647244095802307
C 8.488139152526855 2.123579740524292 0.03238990530371666
C 10.495879173278809 0.1339626908302307 0.11506542563438416
C 9.203741073608398 4.741889953613281 0.34965601563453674
N 9.862726211547852 6.817943096160889 0.6256883144378662
H 2.349099636077881 -2.8727238178253174 -2.0128040313720703
H 2.7901618480682373 -0.0077289799228310585 -3.682849407196045
H 1.334637999534607 0.0198043305426836 -0.6471555829048157
H 5.214416027069092 -1.5026346445083618 1.08583664894104
H 10.075982093811035 -1.2193268537521362 1.6197599172592163
H 12.3513822555542 0.9694294929504395 0.4758519232273102
H 10.557710647583008 -0.863567054271698 -1.6941962242126465
