17
Generated by QM7 dataset
O 1.878368854522705 0.07936849445104599 0.14652936160564423
C 4.542863845825195 0.03662289306521416 0.017933500930666924
C 5.65360689163208 2.1441211700439453 1.6329312324523926
C 8.301944732666016 1.2002028226852417 2.2260217666625977
C 7.939306259155273 -1.6130702495574951 2.742729663848877
C 5.659124851226807 -2.3108139038085938 1.1819480657577515
C 4.774468898773193 -4.676769733428955 0.9984745979309082
H 1.2765100002288818 -1.3472613096237183 -0.835258960723877
H 5.156136512756348 0.23181270062923431 -1.9511233568191528
H 4.554769039154053 2.4156746864318848 3.3711202144622803
H 5.6718430519104 3.9555935859680176 0.6334550976753235
H 9.541793823242188 1.4754036664962769 0.5880638957023621
H 9.145140647888184 2.187509059906006 3.8358983993530273
H 9.622069358825684 -2.6872661113739014 2.2058773040771484
H 7.543824672698975 -1.9230420589447021 4.7514519691467285
H 3.1027603149414062 -5.134820461273193 -0.0970185399055481
H 5.704913139343262 -6.229652404785156 1.9653340578079224
