14
Generated by QM7 dataset
C 1.801324725151062 -0.03186078369617462 0.23254969716072083
C 4.634628772735596 0.11283554881811142 -0.16540773212909698
O 5.188564300537109 0.20858797430992126 -2.8534297943115234
C 6.053529739379883 2.0639209747314453 1.5220232009887695
N 7.808783054351807 0.022279871627688408 2.2052159309387207
C 6.233035087585449 -1.8439759016036987 1.380426049232483
O 6.256543159484863 -4.0751566886901855 1.8424263000488281
H 1.315362811088562 -0.1450742781162262 2.2411208152770996
H 1.0126097202301025 -1.70179283618927 -0.7016175389289856
H 0.8645685911178589 1.6382791996002197 -0.5523291826248169
H 6.997485637664795 -0.1197708398103714 -2.9642434120178223
H 5.019962787628174 2.806016445159912 3.151855230331421
H 6.988471984863281 3.602630615234375 0.5096969604492188
H 8.729571342468262 -0.27191269397735596 3.8553059101104736
