17
Generated by QM7 dataset
C 1.6397720575332642 -0.21446502208709717 0.313751220703125
C 4.483356475830078 0.00914627406746149 -0.07196076959371567
C 5.2802348136901855 0.023300323635339737 -2.8375937938690186
O 4.215620040893555 2.1507728099823 -4.097285270690918
C 5.791103363037109 2.041849136352539 1.5464574098587036
O 7.389074802398682 0.1763303428888321 2.749192476272583
C 6.0306830406188965 -1.858054280281067 1.535062313079834
H 1.1504086256027222 -0.32338884472846985 2.323002576828003
H 0.9014182686805725 -1.916541337966919 -0.6038997769355774
H 0.6457383036613464 1.4215842485427856 -0.472148060798645
H 4.670571327209473 -1.697635531425476 -3.814204216003418
H 7.336880683898926 0.1550709307193756 -3.033463954925537
H 2.4662249088287354 1.7508502006530762 -4.495148181915283
H 4.600954055786133 3.0037953853607178 2.938505172729492
H 6.911049842834473 3.44822096824646 0.5251737833023071
H 7.311463832855225 -3.1123979091644287 0.5038387775421143
H 4.973513603210449 -2.970592737197876 2.9227259159088135
