12
Generated by QM7 dataset
C 2.00656795501709 -0.2573240101337433 -0.40676355361938477
O 4.68839168548584 -0.11961966753005981 -0.3767735958099365
C 5.785396575927734 2.2077102661132812 0.0
C 4.561156272888184 4.401607036590576 0.35390791296958923
C 8.442351341247559 2.2077102661132812 0.0
C 10.691428184509277 2.2077102661132812 0.0
H 1.4768399000167847 -2.2289698123931885 -0.7262784242630005
H 1.223427653312683 0.8697275519371033 -1.9539579153060913
H 1.213582158088684 0.32684704661369324 1.4118332862854004
H 2.522860050201416 4.55386209487915 0.37805861234664917
H 5.601110458374023 6.149792671203613 0.6364030838012695
H 12.703343391418457 2.1946523189544678 -0.002097595948725939
