11
Generated by QM7 dataset
N 1.9570949077606201 -0.0007558904471807182 -0.48940128087997437
C 4.342212677001953 -0.1029333844780922 -0.025190049782395363
C 5.945040702819824 -2.357754707336426 0.26344671845436096
C 8.261089324951172 -1.4491742849349976 0.724974513053894
N 8.365175247192383 1.1346482038497925 0.7728412747383118
C 6.046462059020996 2.1888887882232666 0.33172252774238586
O 5.377726078033447 4.370558738708496 0.22451835870742798
H 1.4376091957092285 1.8774429559707642 -0.5707162022590637
H 5.297922611236572 -4.276128768920898 0.11674728244543076
H 9.955020904541016 -2.550903558731079 1.0436956882476807
H 9.930113792419434 2.183351755142212 1.0893325805664062
