17
Generated by QM7 dataset
C 4.9951887130737305 -1.6539827585220337 0.3551362454891205
O 7.528800964355469 -0.7720665335655212 0.2640136480331421
C 7.63831090927124 1.9284088611602783 0.1873096525669098
C 10.336934089660645 2.8731584548950195 -0.05952637270092964
C 12.338135719299316 1.307936191558838 -0.2023140788078308
C 10.784326553344727 5.593532562255859 -0.1527087688446045
C 9.033004760742188 7.418384552001953 -0.021108241751790047
H 5.027975559234619 -3.716524362564087 0.4739244282245636
H 3.9794609546661377 -1.1097605228424072 -1.3622468709945679
H 4.023623943328857 -0.9119062423706055 2.02327299118042
H 6.803448677062988 2.6646649837493896 1.9357599020004272
H 6.529287338256836 2.5916082859039307 -1.433451771736145
H 12.09900951385498 -0.7301145792007446 -0.1426176279783249
H 14.262651443481445 1.9909776449203491 -0.38147902488708496
H 12.746807098388672 6.187983989715576 -0.349089115858078
H 7.030045986175537 7.043935298919678 0.17744527757167816
H 9.598353385925293 9.389463424682617 -0.11155053228139877
