16
Generated by QM7 dataset
C 2.3316009044647217 -0.46664896607398987 -0.7143542766571045
C 5.16749382019043 -0.45075637102127075 -0.25843894481658936
C 6.05840539932251 2.082005739212036 0.8033036589622498
C 8.849739074707031 2.0756561756134033 1.2481074333190918
C 10.664839744567871 3.0937652587890625 -0.6924334764480591
O 9.937597274780273 4.544243335723877 1.4812051057815552
H 1.7346930503845215 -2.3035194873809814 -1.454049825668335
H 1.7942004203796387 0.9837536215782166 -2.087977409362793
H 1.2959741353988647 -0.11440402269363403 1.0414280891418457
H 6.151493072509766 -0.8566128611564636 -2.0360476970672607
H 5.657008647918701 -1.976181149482727 1.0566970109939575
H 5.099974155426025 2.46193528175354 2.600036382675171
H 5.53156852722168 3.6080918312072754 -0.4983396828174591
H 9.478620529174805 0.6384061574935913 2.5589537620544434
H 9.945005416870117 3.6948680877685547 -2.5105767250061035
H 12.568549156188965 2.3451690673828125 -0.7287539839744568
