15
Generated by QM7 dataset
C 1.6658313274383545 0.22136251628398895 -0.011470637284219265
C 4.507185935974121 0.042953476309776306 -0.01366272009909153
C 5.533854961395264 -2.609220504760742 0.010487980209290981
O 4.888097763061523 -3.8148467540740967 -2.3000991344451904
C 5.931888103485107 2.150489330291748 0.0
C 8.58884334564209 2.150489330291748 0.0
C 10.837919235229492 2.150489330291748 0.0
H 1.0045973062515259 2.181802272796631 0.04675182327628136
H 0.8873019814491272 -0.7481803894042969 1.6427199840545654
H 0.8814438581466675 -0.6506326794624329 -1.7158145904541016
H 4.69914436340332 -3.689236640930176 1.5659782886505127
H 7.586097717285156 -2.706352472305298 0.23330558836460114
H 5.604455471038818 -2.7757997512817383 -3.636721134185791
H 5.0213236808776855 3.9925756454467773 -0.0006047123461030424
H 12.851025581359863 2.1517932415008545 0.0023621576838195324
