14
Generated by QM7 dataset
C 1.8992692232131958 -0.1374208778142929 -0.39761728048324585
N 4.574970245361328 0.024018419906497 0.23502524197101593
C 5.594912052154541 2.618555784225464 0.0
C 4.635876178741455 4.310862064361572 2.1472392082214355
C 8.323677062988281 2.618555784225464 0.0
N 10.498770713806152 2.618555784225464 0.0
H 1.3023992776870728 -2.11673903465271 -0.32182034850120544
H 1.523856282234192 0.5590187907218933 -2.3091697692871094
H 0.7236328125 0.8979033827781677 0.9499086141586304
H 5.553640365600586 -1.133684515953064 -0.961757242679596
H 4.9656901359558105 3.425071954727173 -1.804556131362915
H 5.125730991363525 3.530688762664795 4.00206184387207
H 2.5847673416137695 4.555298328399658 2.0738232135772705
H 5.479374408721924 6.198509693145752 2.0284130573272705
