14
Generated by QM7 dataset
C 2.149015426635742 -0.014626480638980865 0.649272084236145
N 4.863380432128906 -0.09053678065538406 0.642450213432312
C 6.491757392883301 2.054018974304199 -0.0658191591501236
C 8.355594635009766 0.12111254781484604 -1.2242401838302612
O 9.095724105834961 0.546414315700531 -3.8268277645111084
C 6.1453328132629395 -1.7727710008621216 -0.8339361548423767
O 5.542737007141113 -3.799010992050171 -1.7013015747070312
H 1.4112097024917603 -1.9039746522903442 1.0444327592849731
H 1.4754414558410645 0.5805805325508118 -1.2132986783981323
H 1.5137273073196411 1.3118479251861572 2.096802234649658
H 7.207963466644287 3.0953335762023926 1.5673388242721558
H 5.6022820472717285 3.3485569953918457 -1.4121167659759521
H 10.001299858093262 -0.30383017659187317 -0.04425738751888275
H 8.022454261779785 -0.5874024629592896 -4.8086161613464355
