13
Generated by QM7 dataset
O 2.082383632659912 -0.0019464179640635848 1.0172207355499268
C 4.288695812225342 -0.019350795075297356 0.3979574143886566
C 6.255163669586182 2.0568346977233887 -0.10735534131526947
C 7.955879211425781 -0.03443080931901932 -1.2823492288589478
C 6.197016716003418 -2.125904083251953 -0.19664490222930908
C 8.121249198913574 0.021694056689739227 -4.0214128494262695
C 8.242229461669922 0.06814352422952652 -6.285040378570557
H 6.999734401702881 2.8981974124908447 1.6286793947219849
H 5.603586196899414 3.5478851795196533 -1.3794056177139282
H 9.840767860412598 -0.07908503711223602 -0.416779100894928
H 5.505055904388428 -3.5426318645477295 -1.5307915210723877
H 6.916945457458496 -3.0608839988708496 1.5014441013336182
H 8.33900260925293 0.109604112803936 -8.297995567321777
