8
Generated by QM7 dataset
C 1.8315414190292358 0.01955866627395153 -0.0
C 4.372901916503906 0.0 0.0
C 5.701379299163818 -2.3009872436523438 0.0
N 6.788935661315918 -4.184685230255127 0.0
C 5.740099906921387 2.317049980163574 0.0
N 6.817319393157959 4.225975513458252 -0.0
H 0.7673044204711914 1.777287483215332 -0.0
H 0.7397143840789795 -1.7212193012237549 0.0
