16
Generated by QM7 dataset
C 1.9445282220840454 0.0023432604502886534 -0.09425953775644302
C 4.761316299438477 -0.04093146696686745 -0.018254755064845085
C 6.321095943450928 -1.4299935102462769 -1.965806484222412
C 5.1549272537231445 -2.8567934036254883 -4.097002029418945
C 6.278785228729248 1.432658076286316 -1.9498194456100464
C 8.493165969848633 2.7781996726989746 -1.136897087097168
N 10.280734062194824 3.864924669265747 -0.4822581112384796
H 1.2247881889343262 1.4028948545455933 1.248371958732605
H 1.1869181394577026 -1.8463190793991089 0.4419880509376526
H 1.2074594497680664 0.490686297416687 -1.9642380475997925
H 5.43870735168457 -0.11232531815767288 1.9184499979019165
H 8.007997512817383 -2.3840785026550293 -1.2880373001098633
H 3.551853656768799 -1.8611345291137695 -4.942994594573975
H 4.497019290924072 -4.704529762268066 -3.4393205642700195
H 6.5574631690979 -3.1694297790527344 -5.585746765136719
H 5.236658096313477 2.360891580581665 -3.453096628189087
