10
Generated by QM7 dataset
C 1.8971905708312988 0.010128932073712349 0.009599808603525162
C 4.766891002655029 0.035375673323869705 0.023092452436685562
N 5.70510196685791 2.623469114303589 0.042972370982170105
H 1.2015067338943481 -1.9380842447280884 0.002853486454114318
H 1.14560866355896 0.9601887464523315 -1.6687982082366943
H 1.1325507164001465 0.9540093541145325 1.6851444244384766
H 5.486385345458984 -0.9530456066131592 -1.646518349647522
H 5.465182304382324 -0.9588470458984375 1.6973708868026733
H 5.107136249542236 3.543501138687134 -1.5400700569152832
H 7.629183292388916 2.6064047813415527 -0.037057530134916306
