17
Generated by QM7 dataset
C 1.8674273490905762 0.04234876111149788 0.19439612329006195
C 4.398073196411133 0.01547685731202364 0.06477981060743332
C 5.943207740783691 -2.3804502487182617 -0.015533548779785633
C 7.783819675445557 -2.288609504699707 -2.244994640350342
O 9.334906578063965 -0.0666128471493721 -2.1471824645996094
C 7.833141803741455 2.184504508972168 -2.3065052032470703
C 5.991074562072754 2.376821994781494 -0.08405502140522003
H 0.8139995336532593 1.803932547569275 0.22841119766235352
H 0.7794175148010254 -1.6952354907989502 0.27858343720436096
H 4.746992111206055 -4.063704967498779 -0.15966296195983887
H 7.013434886932373 -2.5170207023620605 1.7542327642440796
H 9.043057441711426 -3.92917537689209 -2.17885422706604
H 6.781773567199707 -2.343411684036255 -4.059074878692627
H 9.127433776855469 3.7980849742889404 -2.2808804512023926
H 6.834969520568848 2.2134172916412354 -4.122721195220947
H 7.061755180358887 2.544081687927246 1.6835758686065674
H 4.828552722930908 4.078747272491455 -0.2790747582912445
