20
Generated by QM7 dataset
C 1.8335824012756348 0.10854586958885193 0.019955508410930634
C 4.691415309906006 -0.12714077532291412 0.05406506359577179
N 5.921078681945801 1.7861124277114868 1.6976921558380127
C 7.857537746429443 -0.10064681619405746 2.4072465896606445
C 5.989184856414795 -2.236320734024048 1.665056586265564
C 4.5119099617004395 -3.3043372631073 3.9074244499206543
C 7.1627044677734375 -4.3480143547058105 0.0893840491771698
H 0.9909346103668213 -1.507094383239746 -0.9632689952850342
H 1.2527750730514526 1.823623538017273 -0.9854543805122375
H 1.019015908241272 0.18772539496421814 1.9212467670440674
H 5.413158416748047 -0.03609376773238182 -1.8928064107894897
H 4.831916332244873 2.340784788131714 3.1884403228759766
H 9.566152572631836 0.019331898540258408 1.237165927886963
H 8.436531066894531 -0.03524339199066162 4.392139434814453
H 3.7159006595611572 -1.810357689857483 5.099085807800293
H 5.737756729125977 -4.462682723999023 5.108818054199219
H 2.9489176273345947 -4.496301174163818 3.258643627166748
H 8.275186538696289 -3.60036301612854 -1.488291621208191
H 5.69510555267334 -5.573029041290283 -0.7030537128448486
H 8.422490119934082 -5.5171308517456055 1.241909146308899
