9
Generated by QM7 dataset
C 1.889726161956787 0.0 0.0
C 4.618490695953369 0.0 0.0
C 6.86756706237793 0.0 0.0
C 9.598977088928223 -0.0 -0.0
C 12.049139022827148 -0.0 -0.0
H 0.8927444219589233 2.325629234313965 0.03913622722029686
H 0.9164226651191711 -1.160216212272644 2.0250494480133057
H 0.9201265573501587 -1.1349506378173828 -2.0632786750793457
H 14.194280624389648 -0.0 -0.0
