18
Generated by QM7 dataset
C 4.436585426330566 -0.7674744725227356 -2.96677565574646
C 4.65592622756958 0.2648640275001526 -0.288164347410202
C 6.57386589050293 2.4268620014190674 -0.06447745859622955
N 6.799877166748047 3.185851573944092 2.6232612133026123
C 5.937897682189941 5.827386379241943 2.8201138973236084
C 5.465825080871582 6.673794746398926 0.19239301979541779
C 5.815254211425781 4.775186538696289 -1.4250047206878662
H 3.150286912918091 -2.3875176906585693 -2.999354362487793
H 6.2767252922058105 -1.3986618518829346 -3.670320510864258
H 3.690446138381958 0.6536562442779541 -4.270043849945068
H 5.227643966674805 -1.2906640768051147 0.9592249989509583
H 2.779768228530884 0.8799321055412292 0.3485599756240845
H 8.426667213439941 1.7973941564559937 -0.7477646470069885
H 8.666094779968262 3.140101194381714 3.0922722816467285
H 7.385257720947266 6.99553918838501 3.7258973121643066
H 4.205585479736328 5.924480438232422 3.945502519607544
H 4.893558979034424 8.565939903259277 -0.3127118945121765
H 5.58243989944458 4.905332088470459 -3.4490902423858643
