19
Generated by QM7 dataset
C 1.6332714557647705 -4.401266574859619 -2.6976218223571777
C 3.8715198040008545 -3.5722815990448 -1.0987434387207031
C 3.53420352935791 -0.8804612159729004 -0.11875039339065552
C 5.740080833435059 -0.07347255200147629 1.5544508695602417
O 5.325475215911865 2.487748861312866 2.303368330001831
C 7.068766117095947 3.5562188625335693 3.876943349838257
C 9.1422119140625 2.5296630859375 4.895543575286865
H 1.9368369579315186 -6.316919803619385 -3.414565086364746
H 1.3707695007324219 -3.1425578594207764 -4.317154884338379
H -0.1096419095993042 -4.401474475860596 -1.5844597816467285
H 5.600411415100098 -3.6914288997650146 -2.2350168228149414
H 4.092806816101074 -4.88157844543457 0.4917823374271393
H 1.7688781023025513 -0.7227635383605957 0.9573352336883545
H 3.3507301807403564 0.4412132501602173 -1.705723524093628
H 7.515308380126953 -0.21283985674381256 0.49469250440597534
H 5.823134422302246 -1.2977126836776733 3.2243452072143555
H 6.53624153137207 5.502164363861084 4.244948387145996
H 9.710471153259277 0.5925992131233215 4.564576625823975
H 10.338143348693848 3.6527082920074463 6.1264166831970215
