11
Generated by QM7 dataset
C 1.8297650814056396 0.03977873548865318 0.003609376959502697
C 4.098740577697754 0.044578637927770615 0.0006047123461030424
C 6.782075881958008 0.042877886444330215 -0.0049510826356709
N 8.195779800415039 2.0867300033569336 -0.014267432503402233
C 10.645186424255371 1.2386399507522583 -0.02016337774693966
C 10.721399307250977 -1.3578816652297974 -0.014097357168793678
N 8.24349594116211 -2.09364652633667 -0.0033637124579399824
H -0.18288768827915192 0.06062241271138191 0.0051400549709796906
H 12.219593048095703 2.543779134750366 -0.02891281060874462
H 12.263188362121582 -2.696147918701172 -0.016459515318274498
H 7.577726364135742 -3.8820643424987793 0.0032692262902855873
