16
Generated by QM7 dataset
C 3.889491081237793 -1.1843669414520264 -2.2709217071533203
C 4.060719013214111 0.5677682161331177 -0.4495091438293457
C 6.209999084472656 2.250059127807617 0.006632938515394926
N 7.05699348449707 3.8779447078704834 -2.051656723022461
C 5.7721686363220215 5.0761823654174805 0.07027891278266907
C 7.322348594665527 6.6388726234436035 1.740588903427124
C 6.774630546569824 7.232870101928711 4.139728546142578
H 2.2226014137268066 -2.3648977279663086 -2.447951316833496
H 5.417296886444092 -1.4758005142211914 -3.6093392372131348
H 2.4821741580963135 0.7521488070487976 0.8565561771392822
H 7.695645332336426 1.4722667932510376 1.188240885734558
H 5.866560459136963 3.725954055786133 -3.5604140758514404
H 3.8972954750061035 5.806769371032715 -0.3264879882335663
H 9.065960884094238 7.3841047286987305 0.9390804767608643
H 5.065032958984375 6.555157661437988 5.046248912811279
H 8.039159774780273 8.414156913757324 5.240588665008545
