18
Generated by QM7 dataset
C 2.111050844192505 0.26448607444763184 0.27206388115882874
C 4.945923328399658 -0.005083363503217697 -0.17920273542404175
N 5.436760902404785 -1.1101007461547852 -2.6585988998413086
C 6.242181301116943 2.5158867835998535 -0.10484200716018677
C 7.179088592529297 3.579916000366211 2.3690929412841797
C 9.033760070800781 2.6706366539001465 0.4277583956718445
O 10.364864349365234 4.620266914367676 -0.9031001329421997
H 1.7457667589187622 1.0979119539260864 2.1323859691619873
H 1.1673216819763184 -1.5771654844284058 0.2040526270866394
H 1.225090503692627 1.4943575859069824 -1.139939546585083
H 5.7351298332214355 -1.2635276317596436 1.2648125886917114
H 4.588916301727295 -0.04081808403134346 -4.016556262969971
H 4.593319416046143 -2.8382363319396973 -2.7580742835998535
H 5.459909915924072 3.850147008895874 -1.4507616758346558
H 6.968667507171631 2.464939832687378 4.072567462921143
H 7.024357795715332 5.6007513999938965 2.6664602756500244
H 10.041513442993164 0.9268728494644165 0.8194986581802368
H 10.803564071655273 4.0486626625061035 -2.595198631286621
