14
Generated by QM7 dataset
C 2.0328729152679443 -0.11224973201751709 -0.294929563999176
N 4.446695804595947 -0.22754192352294922 0.01668628118932247
O 5.418203830718994 2.238947629928589 0.030254514887928963
C 8.093602180480957 2.101961374282837 0.38769620656967163
C 9.154438018798828 4.777265548706055 0.3885843753814697
C 11.90988540649414 4.792666912078857 0.735632598400116
C 14.161380767822266 4.8105244636535645 1.0174285173416138
H 0.9102810621261597 -1.862249493598938 -0.35987943410873413
H 0.9992871880531311 1.6857112646102905 -0.5054072737693787
H 8.93250846862793 0.9860212802886963 -1.1447961330413818
H 8.494791030883789 1.1587233543395996 2.1895878314971924
H 8.241738319396973 5.882566452026367 1.8852852582931519
H 8.65566349029541 5.7196149826049805 -1.3884952068328857
H 16.16018295288086 4.826624870300293 1.2667022943496704
