19
Generated by QM7 dataset
C 1.3986618518829346 2.042586088180542 -0.7581581473350525
C -0.9363781809806824 0.5565621256828308 -0.1105111837387085
C 1.5987460613250732 -0.7217053174972534 -0.12608252465724945
C 2.962599277496338 -1.6995818614959717 2.182274580001831
C 2.617043972015381 -0.4572948217391968 4.820672512054443
C 2.980891704559326 -3.111453056335449 5.967963218688965
C 2.02639102935791 -4.183286666870117 3.433821439743042
H 1.673201322555542 2.6001687049865723 -2.7095837593078613
H 2.07132887840271 3.4112768173217773 0.6076981425285339
H -2.241196393966675 0.11207965761423111 -1.6271297931671143
H -1.8524607419967651 0.9420284628868103 1.6787192821502686
H 1.9739512205123901 -2.0075883865356445 -1.6823853254318237
H 4.986382484436035 -1.8312768936157227 1.7014715671539307
H 0.7423977851867676 0.3372027277946472 5.182309150695801
H 4.0456390380859375 0.9392316937446594 5.344693660736084
H 4.95633602142334 -3.578782320022583 6.382040023803711
H 1.8230377435684204 -3.544294834136963 7.622097015380859
H 2.953263998031616 -5.915220737457275 2.793827772140503
H -0.026267193257808685 -4.451968193054199 3.36114239692688
