18
Generated by QM7 dataset
C 2.595879077911377 -0.3203085660934448 1.8843404054641724
C 4.762109756469727 0.0 0.0
C 4.050306797027588 -0.8861870765686035 -2.6796505451202393
C 1.8185023069381714 0.5211297869682312 -3.8703670501708984
N 1.3275514841079712 -0.4529484510421753 -6.4072675704956055
C 5.672995567321777 2.5722384452819824 0.0
C 6.423746109008789 4.692322254180908 0.0
H 3.2436203956604004 0.06922066956758499 3.8135807514190674
H 1.8630053997039795 -2.255331516265869 1.8455253839492798
H 1.0286346673965454 0.9762892127037048 1.4987984895706177
H 6.307244300842285 -1.2292479276657104 0.6400880217552185
H 3.6076571941375732 -2.914278984069824 -2.6079354286193848
H 5.711205959320068 -0.6966286301612854 -3.9131882190704346
H 2.2058205604553223 2.5494673252105713 -3.9937660694122314
H 0.10873483866453171 0.2672261595726013 -2.7369282245635986
H 2.8731396198272705 -0.15542997419834137 -7.519598007202148
H -0.10561679303646088 0.5572991371154785 -7.2057905197143555
H 7.099568843841553 6.589626312255859 0.004686520900577307
