15
Generated by QM7 dataset
N 8.222746849060059 -2.69197154045105 -0.5599069595336914
C 6.193671703338623 -1.114409327507019 -0.6819265484809875
N 3.9710516929626465 -2.0334208011627197 -1.127845287322998
C 6.357851505279541 1.661088228225708 -0.29878461360931396
C 8.552655220031738 2.914883613586426 -0.11814567446708679
C 8.727775573730469 5.703420162200928 0.23290874063968658
O 10.021444320678711 6.1654205322265625 2.534519672393799
H 9.712265968322754 -2.068267345428467 0.47033393383026123
H 7.8389997482299805 -4.53388786315918 -0.225992351770401
H 4.104919910430908 -3.935713768005371 -1.4230015277862549
H 4.551121711730957 2.6297240257263184 -0.21488076448440552
H 10.349652290344238 1.9390857219696045 -0.2801330089569092
H 6.8780927658081055 6.62692928314209 0.308459997177124
H 9.814104080200195 6.548789024353027 -1.3093345165252686
H 8.969698905944824 5.480243682861328 3.8767542839050293
