13
Generated by QM7 dataset
C 1.9234009981155396 -0.0168563574552536 -0.1720784604549408
C 4.190656661987305 0.0111682815477252 -0.08207080513238907
C 6.898577690124512 0.051400549709796906 0.03399617224931717
C 8.371373176574707 -1.3372268676757812 -1.963860034942627
C 8.333767890930176 1.506829857826233 -1.9626318216323853
C 10.581748008728027 2.837423801422119 -1.2373360395431519
C 12.457585334777832 3.960223436355591 -0.6319433450698853
H -0.08777777850627899 -0.037907905876636505 -0.24904701113700867
H 7.686593532562256 0.026626240462064743 1.9304119348526
H 7.348823547363281 -2.300231456756592 -3.4554965496063232
H 10.082463264465332 -2.3035194873809814 -1.383468508720398
H 7.23413610458374 2.404789924621582 -3.4461991786956787
H 14.119863510131836 4.960436820983887 -0.09403277188539505
