12
Generated by QM7 dataset
C 1.705912470817566 0.08019997924566269 0.09214304387569427
C 4.524590015411377 0.00041573974885977805 0.28357231616973877
C 6.015905380249023 1.9509344100952148 -0.35882118344306946
C 8.794464111328125 1.9791101217269897 -0.12519435584545135
O 9.89443588256836 -0.28292980790138245 -0.5015522241592407
O 9.971253395080566 3.9168732166290283 0.28272193670272827
H 1.0440547466278076 -1.431373119354248 -1.1541690826416016
H 1.0217560529708862 1.881600260734558 -0.6598923802375793
H 0.8654945492744446 -0.20116133987903595 1.9603263139724731
H 5.310168266296387 -1.7301387786865234 1.0636323690414429
H 5.2249603271484375 3.7376515865325928 -0.9866260290145874
H 8.736412048339844 -1.574822187423706 -1.1145604848861694
