14
Generated by QM7 dataset
C 1.6455734968185425 0.28124794363975525 -0.08314795047044754
C 4.481712341308594 0.060244470834732056 -0.12502427399158478
C 5.5012006759643555 -2.5927231311798096 -0.27195048332214355
O 4.828835964202881 -3.6551461219787598 -2.6404008865356445
C 5.931888103485107 2.150489330291748 0.0
C 8.58884334564209 2.150489330291748 0.0
N 10.763936996459961 2.150489330291748 0.0
H 1.0135923624038696 2.238342761993408 0.1628376990556717
H 0.8614883422851562 -0.8249977231025696 1.4822067022323608
H 0.8318385481834412 -0.4163822531700134 -1.8543694019317627
H 4.727509021759033 -3.768095016479492 1.247087001800537
H 7.559603691101074 -2.6775529384613037 -0.11565124243497849
H 3.0850725173950195 -4.213616847991943 -2.5203845500946045
H 5.0523905754089355 4.000531196594238 0.10504987835884094
