19
Generated by QM7 dataset
C 1.911609172821045 0.07182849198579788 0.3139024078845978
N 4.656662940979004 0.021883029490709305 -0.005612486507743597
C 5.510176658630371 -2.419529676437378 -1.0524829626083374
C 4.986268997192383 -2.783339738845825 -3.905100107192993
N 5.972177028656006 -0.7037150859832764 -5.470190048217773
C 5.001443862915039 1.718252420425415 -4.498436450958252
C 5.523366928100586 2.1036243438720703 -1.6485025882720947
H 1.320842981338501 1.8580354452133179 1.1795103549957275
H 1.3100148439407349 -1.4304848909378052 1.606380581855774
H 0.8735637068748474 -0.1552221029996872 -1.4611362218856812
H 4.680813789367676 -3.9914417266845703 0.015401268377900124
H 7.5574116706848145 -2.5571584701538086 -0.7416797280311584
H 5.866012096405029 -4.549798965454102 -4.532621383666992
H 2.9523379802703857 -2.9909451007843018 -4.242567539215088
H 7.890948295593262 -0.6840997338294983 -5.276606559753418
H 5.893337726593018 3.2558469772338867 -5.5621442794799805
H 2.9685897827148438 1.8449773788452148 -4.8822021484375
H 7.570941925048828 2.3061084747314453 -1.381578803062439
H 4.702470302581787 3.9025301933288574 -1.0263102054595947
