15
Generated by QM7 dataset
C 2.445683479309082 -0.8308748006820679 1.7113548517227173
C 4.049531936645508 -0.07485204935073853 -0.096073679625988
C 6.001014232635498 1.964634895324707 0.24269752204418182
C 8.65420913696289 0.9932589530944824 -0.183908149600029
C 10.114777565002441 0.2006700187921524 1.7348064184188843
C 9.679574012756348 0.9924652576446533 -2.681880474090576
C 10.543330192565918 1.0049374103546143 -4.778947353363037
H 1.077143907546997 -2.3149523735046387 1.3445590734481812
H 2.4620108604431152 -0.0005291232955642045 3.587134838104248
H 3.954252004623413 -0.9637792110443115 -1.948175311088562
H 5.852746486663818 2.8020291328430176 2.135296106338501
H 5.596348285675049 3.505687713623047 -1.0848162174224854
H 9.417998313903809 0.18313336372375488 3.663630962371826
H 12.029504776000977 -0.47099533677101135 1.426478624343872
H 11.316889762878418 1.0175230503082275 -6.637606143951416
