21
Generated by QM7 dataset
C 4.297388553619385 -0.8519452214241028 -2.853297472000122
C 4.631246089935303 0.04796124994754791 -0.146680548787117
C 6.141723155975342 2.4946842193603516 -0.07439851760864258
C 4.795803546905518 4.936777114868164 -0.9885724186897278
C 6.198301792144775 6.3539018630981445 1.135763168334961
C 6.339747905731201 3.800976276397705 2.564434051513672
C 8.73042106628418 3.31042218208313 4.062476634979248
H 3.2448487281799316 -2.6323130130767822 -2.8954005241394043
H 6.129969120025635 -1.1626540422439575 -3.764617919921875
H 3.257887840270996 0.5376459956169128 -3.9808592796325684
H 5.6216139793396 -1.412608027458191 0.9353577494621277
H 2.7725305557250977 0.3034711182117462 0.7275445461273193
H 8.003557205200195 2.2542731761932373 -0.9715459942817688
H 2.7379486560821533 4.922774314880371 -0.7550400495529175
H 5.247145652770996 5.541640758514404 -2.913466453552246
H 8.033811569213867 7.115310192108154 0.5489843487739563
H 5.122783184051514 7.847409248352051 2.073312997817993
H 4.659762382507324 3.4858832359313965 3.7459285259246826
H 10.42703628540039 3.631845712661743 2.922574758529663
H 8.775888442993164 1.355878472328186 4.738393783569336
H 8.823018074035645 4.555732727050781 5.711432456970215
