13
Generated by QM7 dataset
C 3.6103029251098633 -1.248787760734558 -2.249567747116089
C 3.90842604637146 0.5601148009300232 -0.504670262336731
C 6.116949081420898 2.2044410705566406 -0.2471950799226761
C 6.6332221031188965 4.153032302856445 -2.257164478302002
C 5.704629898071289 4.968619346618652 0.29475948214530945
H 1.9125350713729858 -2.3974578380584717 -2.2981338500976562
H 5.053732395172119 -1.6094608306884766 -3.6610419750213623
H 2.4007458686828613 0.8248276710510254 0.8728455901145935
H 7.739789009094238 1.3168556690216064 0.6404848694801331
H 5.342388153076172 4.312543869018555 -3.8407928943634033
H 8.58835220336914 4.532394886016846 -2.7364935874938965
H 7.031198501586914 5.904581546783447 1.5445109605789185
H 3.7897324562072754 5.68605375289917 0.42632222175598145
