13
Generated by QM7 dataset
C 1.746673822402954 0.0852077528834343 -0.012547781690955162
C 4.548117160797119 0.06700968742370605 0.0011716302251443267
C 6.256108283996582 2.0396571159362793 0.0033070207573473454
C 8.787812232971191 1.1139179468154907 0.013058007694780827
N 10.771646499633789 2.6875874996185303 0.008995096199214458
N 9.04642105102539 -1.3801803588867188 0.023753857240080833
S 6.210811614990234 -2.7031397819519043 0.014513096772134304
H 1.0207544565200806 2.023348569869995 0.004459753632545471
H 0.9949597120285034 -0.8856768608093262 1.6523387432098389
H 1.0134034156799316 -0.8494318723678589 -1.7068384885787964
H 5.7260589599609375 4.012455463409424 -0.0054802056401968
H 10.63551139831543 4.592374801635742 0.0582035630941391
H 12.541450500488281 1.9596837759017944 0.061775147914886475
