11
Generated by QM7 dataset
C 2.2994186878204346 -0.8857713341712952 -0.7924566268920898
C 4.730154514312744 -0.6693977117538452 -0.156828373670578
O 5.980227470397949 1.59489107131958 -0.2978397309780121
C 8.469374656677246 1.7137737274169922 0.4097493290901184
C 9.785247802734375 3.861201763153076 0.28028416633605957
H 1.3343167304992676 -2.688664436340332 -0.6737818717956543
H 1.235124945640564 0.7416986227035522 -1.4426169395446777
H 5.8369293212890625 -2.2570509910583496 0.49558067321777344
H 9.288419723510742 -0.03395837917923927 1.0777674913406372
H 8.912610054016113 5.5882415771484375 -0.39748498797416687
H 11.75241470336914 3.9287972450256348 0.8479012250900269
