13
Generated by QM7 dataset
C 2.0851049423217773 0.02834589220583439 0.3062301278114319
C 4.542353630065918 0.07107260078191757 -0.2545838952064514
O 5.9281086921691895 2.269258737564087 -0.5097347497940063
C 8.216755867004395 1.4411240816116333 -1.7376787662506104
C 8.741835594177246 -1.3169879913330078 -1.0703976154327393
C 6.115758419036865 -2.2039308547973633 -0.6358172297477722
O 5.414046287536621 -4.392139434814453 -0.5057284832000732
H 1.076350212097168 -1.7472407817840576 0.5026482343673706
H 1.042316198348999 1.770125389099121 0.5781806111335754
H 7.963929653167725 1.6727855205535889 -3.7828915119171143
H 9.777121543884277 2.6660068035125732 -1.1496905088424683
H 9.6754732131958 -2.3180325031280518 -2.6141715049743652
H 9.815898895263672 -1.488669514656067 0.6872367262840271
