15
Generated by QM7 dataset
N 1.8413869142532349 0.15386150777339935 0.12184954434633255
C 4.601275444030762 0.03392058238387108 -0.13505873084068298
C 5.870245456695557 1.889650583267212 1.7221829891204834
N 7.699915885925293 -0.14286328852176666 2.3815650939941406
C 5.747469902038574 -2.033137559890747 1.613183617591858
C 6.912901878356934 -4.158172130584717 0.34857887029647827
C 7.876812934875488 -5.9319071769714355 -0.6903736591339111
H 0.9353388547897339 -1.3286664485931396 -0.711708664894104
H 1.0654842853546143 1.7444062232971191 -0.6374046206474304
H 5.319579124450684 0.1071474701166153 -2.0757129192352295
H 4.727376461029053 2.494854211807251 3.343057870864868
H 6.724874019622803 3.564836025238037 0.8627355694770813
H 9.250700950622559 -0.16918718814849854 1.237430453300476
H 4.544394493103027 -2.5984678268432617 3.2077722549438477
H 8.731725692749023 -7.512757301330566 -1.598859429359436
