15
Generated by QM7 dataset
C 2.1779472827911377 1.1699295043945312 -1.4956992864608765
N 4.361147880554199 0.6934539079666138 -0.5168401002883911
O 5.795449733734131 2.9260709285736084 -0.5144212245941162
C 8.284540176391602 2.351839780807495 0.37830427289009094
C 9.86023235321045 4.697197914123535 0.21117690205574036
C 10.359100341796875 6.2850022315979 2.5206868648529053
N 12.364893913269043 4.758991718292236 1.395997405052185
H 0.7666429877281189 -0.3476907014846802 -1.6662659645080566
H 1.634972095489502 3.0552902221679688 -2.1967687606811523
H 9.110615730285645 0.8789682984352112 -0.8210482001304626
H 8.16329574584961 1.647141933441162 2.3232104778289795
H 9.70682430267334 5.612940311431885 -1.6132969856262207
H 9.668027877807617 5.642230987548828 4.336694717407227
H 10.515910148620605 8.313055992126465 2.305711507797241
H 13.574602127075195 5.858642578125 0.36711710691452026
