17
Generated by QM7 dataset
C 2.201493263244629 -0.5380239486694336 -0.3549094796180725
O 4.610043525695801 0.055614639073610306 0.670059084892273
C 5.468886375427246 2.5294928550720215 0.0
C 4.457655906677246 4.452648162841797 1.8995527029037476
C 8.197650909423828 2.5294928550720215 0.0
C 10.446727752685547 2.5294928550720215 0.0
C 13.175492286682129 2.5294928550720215 0.0
H 1.6996952295303345 -2.4514284133911133 0.24078890681266785
H 2.26171875 -0.49276497960090637 -2.4212872982025146
H 0.7563628554344177 0.7619942426681519 0.3441947102546692
H 4.7987895011901855 3.0191776752471924 -1.9002896547317505
H 5.002142906188965 3.9443118572235107 3.8314952850341797
H 2.391883134841919 4.5175981521606445 1.8618338108062744
H 5.1708197593688965 6.353070259094238 1.5018409490585327
H 13.920063018798828 4.458657741546631 -0.021391699090600014
H 13.920157432556152 1.5463250875473022 -1.659935474395752
H 13.9200439453125 1.583514928817749 1.6814594268798828
