15
Generated by QM7 dataset
C 1.2993946075439453 1.5883337259292603 0.5266855955123901
C 3.3648085594177246 1.4966630935668945 -0.9322019219398499
C 5.846850395202637 2.545952320098877 -0.29232174158096313
C 7.242280960083008 4.041689395904541 -2.27077054977417
C 6.132917404174805 5.377159118652344 -0.01277454849332571
C 7.782648086547852 6.404300689697266 2.003563165664673
O 9.886707305908203 5.540223598480225 2.4416773319244385
H -0.46162229776382446 0.7375034093856812 -0.09059347212314606
H 1.3265310525894165 2.498690366744995 2.3644254207611084
H 3.222568988800049 0.5273280739784241 -2.7421815395355225
H 6.987829208374023 1.3427259922027588 0.9214115738868713
H 6.361139297485352 4.3559889793396 -4.093562602996826
H 9.279084205627441 3.8162641525268555 -2.3668065071105957
H 4.47131872177124 6.528380393981934 -0.3677974045276642
H 7.002153396606445 7.990518093109131 3.1078813076019287
