14
Generated by QM7 dataset
O 3.4189491271972656 -1.1500684022903442 -2.1286063194274902
C 5.1239166259765625 -0.6719298958778381 -0.11774883419275284
C 5.409284591674805 2.1203861236572266 0.11791890859603882
C 7.634380340576172 3.3345730304718018 0.04257553070783615
C 7.845859527587891 6.043382167816162 0.2722906470298767
C 10.059578895568848 7.262935638427734 0.19974404573440552
H 3.3242738246917725 -2.973314046859741 -2.3187129497528076
H 6.920063495635986 -1.6128623485565186 -0.5261186361312866
H 4.332197189331055 -1.4547489881515503 1.6245219707489014
H 3.6614766120910645 3.1737194061279297 0.3566669225692749
H 9.373003959655762 2.2672555446624756 -0.21129028499126434
H 6.114322185516357 7.1274800300598145 0.508071780204773
H 11.843348503112793 6.279276371002197 -0.03843703120946884
H 10.12647533416748 9.305729866027832 0.37482717633247375
