17
Generated by QM7 dataset
C 1.7150020599365234 0.10327353328466415 -0.48609426617622375
C 4.526498794555664 0.20633919537067413 -0.473754346370697
C 6.137320041656494 -1.4297479391098022 -2.1418724060058594
C 5.060308456420898 -3.2963058948516846 -3.9503591060638428
N 5.830787658691406 1.279987096786499 -2.683392286300659
C 7.871143817901611 2.805978775024414 -2.2108662128448486
N 8.497512817382812 4.757498741149902 -3.5255486965179443
H 0.9422741532325745 1.8048396110534668 0.403021901845932
H 1.0587568283081055 -1.5350056886672974 0.5925425291061401
H 0.9282523989677429 -0.016346130520105362 -2.395020008087158
H 5.271183013916016 0.7563250660896301 1.3531006574630737
H 7.980766773223877 -1.9979318380355835 -1.4545410871505737
H 3.422898769378662 -2.5600876808166504 -4.980146408081055
H 4.479255676269531 -5.009437084197998 -2.9450058937072754
H 6.489073753356934 -3.8311550617218018 -5.3498711585998535
H 9.024991989135742 2.26094388961792 -0.5585274696350098
H 7.189236164093018 4.918371200561523 -4.949136257171631
