13
Generated by QM7 dataset
C 1.835906744003296 0.36819425225257874 0.017763426527380943
C 4.598232746124268 -0.11604808270931244 -0.001889726147055626
N 6.337366580963135 1.6621274948120117 -0.01628943905234337
N 8.753003120422363 0.6775990724563599 -0.03240880370140076
C 8.754666328430176 -1.809639573097229 -0.02917737141251564
C 11.069165229797363 -3.3946661949157715 -0.0446731261909008
S 5.791462421417236 -3.1328446865081787 -0.006066021043807268
H 0.7242942452430725 -1.3763631582260132 -0.0029668700881302357
H 1.301151990890503 1.4860239028930664 -1.6395641565322876
H 1.3166289329528809 1.4376280307769775 1.7115249633789062
H 10.643939018249512 -5.418222904205322 -0.019369693472981453
H 12.23134708404541 -2.9644322395324707 1.6112183332443237
H 12.186805725097656 -2.996349811553955 -1.7389070987701416
