14
Generated by QM7 dataset
C 1.851648211479187 -0.10871594399213791 0.001814137096516788
C 4.721991062164307 0.00910848006606102 -0.007275445386767387
C 5.6673264503479 2.735624313354492 0.028818324208259583
C 8.537744522094727 2.8534297943115234 0.01872718520462513
H 1.2149804830551147 -2.0767524242401123 -0.023640474304556847
H 1.062744140625 0.8423832058906555 -1.6578378677368164
H 1.0777297019958496 0.7920976281166077 1.6960291862487793
H 5.435324668884277 -0.9614548683166504 -1.6920040845870972
H 5.449440956115723 -1.011060118675232 1.6426444053649902
H 4.952783107757568 3.706338882446289 1.713698148727417
H 4.938931465148926 3.755225896835327 -1.6207613945007324
H 9.32464599609375 1.9022928476333618 1.6787570714950562
H 9.173808097839355 4.821296215057373 0.044994380325078964
H 9.310964584350586 1.9512555599212646 -1.6746375560760498
