13
Generated by QM7 dataset
C 2.165248155593872 -0.3338768184185028 -1.0129499435424805
O 4.617810249328613 -0.03853151574730873 0.03785121440887451
C 5.468886375427246 2.5294928550720215 0.0
C 4.524155616760254 3.8662474155426025 2.1832950115203857
C 3.7455127239227295 4.968014240264893 3.9827868938446045
C 8.197650909423828 2.5294928550720215 0.0
C 10.446727752685547 2.5294928550720215 0.0
H 1.6457246541976929 -2.3299756050109863 -0.8902499675750732
H 2.1589176654815674 0.2200586050748825 -3.005439281463623
H 0.768683910369873 0.7701200842857361 0.03838033601641655
H 4.813963890075684 3.4446873664855957 -1.7418739795684814
H 3.0602035522460938 5.943056583404541 5.605929374694824
H 12.459871292114258 2.5142428874969482 0.012113144621253014
