19
Generated by QM7 dataset
C 5.637185573577881 -2.350611448287964 -1.5417330265045166
C 4.9645562171936035 -0.32835879921913147 0.3906630873680115
O 5.685184478759766 -1.2059098482131958 2.850255012512207
C 6.181540012359619 2.2921810150146484 -0.15486305952072144
N 5.43698787689209 4.08524751663208 1.8721705675125122
C 9.107648849487305 2.2086174488067627 -0.3012601435184479
N 10.268903732299805 1.4664652347564697 2.1204237937927246
H 5.215606212615967 -1.7236758470535278 -3.4653987884521484
H 4.556035041809082 -4.075288772583008 -1.1635611057281494
H 7.6304497718811035 -2.8897314071655273 -1.423776388168335
H 2.902505874633789 -0.11540557444095612 0.4184609651565552
H 7.513872146606445 -0.889097273349762 2.9802114963531494
H 5.463708400726318 3.0116944313049316 -1.9601562023162842
H 5.695993423461914 3.142066478729248 3.5468459129333496
H 3.5230352878570557 4.32369327545166 1.7930855751037598
H 9.822872161865234 4.082224369049072 -0.8230891227722168
H 9.725702285766602 0.9029678106307983 -1.780707836151123
H 9.839085578918457 2.875274896621704 3.3805689811706543
H 12.187448501586914 1.5607436895370483 1.9206798076629639
