20
Generated by QM7 dataset
C 4.244268417358398 -0.472280353307724 -2.8947770595550537
C 4.523399829864502 0.30161920189857483 -0.13509652018547058
N 5.822680950164795 2.725816488265991 0.14700180292129517
C 4.378117561340332 4.881691932678223 -0.8099744319915771
C 5.719237327575684 7.141086101531982 0.36135342717170715
C 6.99397087097168 6.119349002838135 2.732449531555176
C 6.311723232269287 3.3291115760803223 2.804826021194458
H 3.4354844093322754 -2.3734960556030273 -3.017193555831909
H 6.079607963562012 -0.502327024936676 -3.8521690368652344
H 2.9892821311950684 0.8077634572982788 -3.9268131256103516
H 5.631232738494873 -1.170949935913086 0.8157947659492493
H 2.6571249961853027 0.3330453336238861 0.7668130993843079
H 2.4071710109710693 4.828004837036133 -0.16811004281044006
H 4.398847579956055 4.99660587310791 -2.8747458457946777
H 7.150572299957275 7.898431777954102 -0.9326176643371582
H 4.391610145568848 8.666945457458496 0.799599826335907
H 9.044002532958984 6.372213363647461 2.5911736488342285
H 6.348289489746094 7.102082252502441 4.433618545532227
H 7.850545883178711 2.1912131309509277 3.592010259628296
H 4.6204938888549805 3.051189661026001 3.9755680561065674
