16
Generated by QM7 dataset
O 1.9244593381881714 -0.04125272110104561 0.14310896396636963
C 4.6473469734191895 0.0021731851156800985 -0.007218753919005394
C 5.870850086212158 1.9444148540496826 -1.8512513637542725
C 5.102789878845215 0.06511995941400528 -3.977344274520874
C 5.949028015136719 -1.8746650218963623 -1.9155586957931519
N 8.694592475891113 -1.3507195711135864 -1.6437405347824097
C 8.673314094543457 1.4246078729629517 -1.5462872982025146
H 1.4785972833633423 1.4845688343048096 1.0643315315246582
H 5.430675983428955 -0.01719650812447071 1.9120815992355347
H 5.158120632171631 3.8719921112060547 -1.9121383428573608
H 6.206427574157715 0.12198182195425034 -5.727419853210449
H 3.095031261444092 0.034204043447971344 -4.485642910003662
H 5.336832046508789 -3.833970785140991 -2.0404317378997803
H 9.468302726745605 -2.0594613552093506 -0.02698528952896595
H 9.792088508605957 2.226834297180176 -3.089456558227539
H 9.400291442871094 2.1298913955688477 0.25849562883377075
