14
Generated by QM7 dataset
O 1.7678954601287842 0.03936299681663513 0.002853486454114318
C 4.4865312576293945 0.05771223455667496 0.0027401028200984
C 5.767727851867676 2.000218391418457 1.7597129344940186
C 7.785350322723389 -0.02284678816795349 2.342731237411499
C 5.80933952331543 -2.036860227584839 1.6019775867462158
O 6.708527565002441 -4.217944145202637 0.23978735506534576
H 1.3149659633636475 -1.571042776107788 -0.7650934457778931
H 5.196935653686523 0.14711518585681915 -1.9440746307373047
H 4.622648239135742 2.5415303707122803 3.398577928543091
H 6.475449085235596 3.7092678546905518 0.8408903479576111
H 9.433550834655762 0.05278005078434944 1.093187689781189
H 8.431126594543457 -0.08108814805746078 4.303851127624512
H 4.652449131011963 -2.6504921913146973 3.2115139961242676
H 7.872220993041992 -3.5718846321105957 -1.0275574922561646
