19
Generated by QM7 dataset
C 7.576157569885254 -2.265195846557617 2.701495885848999
O 8.931185722351074 -0.566842257976532 1.124027967453003
C 7.264768600463867 0.8868484497070312 -0.42280733585357666
C 8.775226593017578 2.642120599746704 -2.1768133640289307
C 10.444912910461426 1.1094582080841064 -3.9691429138183594
O 6.985996246337891 4.150140762329102 -3.547053813934326
C 8.091391563415527 6.222849369049072 -4.8461079597473145
H 8.938688278198242 -3.335479974746704 3.828547239303589
H 6.477527618408203 -3.595506429672241 1.5607436895370483
H 6.329278469085693 -1.226224422454834 3.983391523361206
H 6.018342971801758 2.023594379425049 0.7825167179107666
H 6.059539318084717 -0.3703674376010895 -1.5480636358261108
H 9.974352836608887 3.864981174468994 -1.0085090398788452
H 9.290630340576172 -0.005518000107258558 -5.276908874511719
H 11.701430320739746 -0.16591794788837433 -2.9366343021392822
H 11.630546569824219 2.349553108215332 -5.123236656188965
H 6.56651496887207 7.428872585296631 -5.546629428863525
H 9.185221672058105 5.569854259490967 -6.471121311187744
H 9.282693862915039 7.344250679016113 -3.579216957092285
