19
Generated by QM7 dataset
C 1.5748788118362427 -1.0744982957839966 -0.36054083704948425
C 4.365739822387695 -1.2062689065933228 -0.7236517071723938
C 5.518982887268066 -0.6547901034355164 -3.267241954803467
C 5.8562421798706055 1.1947604417800903 -1.1207587718963623
C 8.42158317565918 1.532983660697937 0.055350080132484436
C 8.254191398620605 2.550846815109253 2.75064754486084
O 7.454043865203857 0.630715012550354 4.456446647644043
H 1.139769434928894 -0.5067489743232727 1.5799810886383057
H 0.7245587706565857 -2.9287543296813965 -0.6966475248336792
H 0.6867642998695374 0.2842715084552765 -1.6433625221252441
H 5.2060441970825195 -2.7138168811798096 0.3821782171726227
H 4.284255027770996 -0.11757875978946686 -4.811620712280273
H 7.121640682220459 -1.791649341583252 -3.8511295318603516
H 4.838624954223633 2.970271587371826 -1.2649827003479004
H 9.479357719421387 2.8818135261535645 -1.1065669059753418
H 9.46183967590332 -0.2581743896007538 0.046940796077251434
H 6.9454426765441895 4.147060871124268 2.8946447372436523
H 10.1202392578125 3.184887647628784 3.3768460750579834
H 5.787626266479492 0.08458413928747177 3.9062907695770264
