19
Generated by QM7 dataset
C 5.077013969421387 -1.7345607280731201 -1.0983655452728271
N 6.617443084716797 0.4427061378955841 -1.7792716026306152
C 6.180897235870361 2.541813850402832 -0.02428298071026802
C 7.710800647735596 4.867462158203125 -0.8273599147796631
C 7.392004013061523 7.005781650543213 1.0060145854949951
C 7.311293601989746 9.692915916442871 0.0658191591501236
N 5.04046630859375 8.451044082641602 1.0183167457580566
H 5.442241191864014 -3.2796576023101807 -2.4243485927581787
H 3.056462049484253 -1.2908719778060913 -1.1825339794158936
H 5.540865898132324 -2.4186415672302246 0.7989950776100159
H 6.149679183959961 1.0070161819458008 -3.5618879795074463
H 6.7352294921875 1.9839668273925781 1.8946393728256226
H 4.166392803192139 3.0298545360565186 0.023980624973773956
H 7.148059368133545 5.446927547454834 -2.736021041870117
H 9.726628303527832 4.38424015045166 -0.91948401927948
H 8.256742477416992 6.632541656494141 2.8257830142974854
H 7.349900722503662 10.044915199279785 -1.9519736766815186
H 8.108928680419922 11.172513961791992 1.2335376739501953
H 4.618433952331543 9.06577205657959 2.7993457317352295
