14
Generated by QM7 dataset
C 1.6963694095611572 -0.1710958033800125 -0.19171272218227386
C 4.562366008758545 0.06804903596639633 0.055123310536146164
N 5.818882465362549 -1.3340144157409668 -1.9610066413879395
C 5.368844032287598 2.7835099697113037 -0.07281114906072617
C 6.484160423278809 4.036322593688965 1.8267982006072998
H 0.7394687533378601 0.8460304141044617 1.3376048803329468
H 1.1086078882217407 -2.1540422439575195 -0.08715417236089706
H 1.0098319053649902 0.6008573174476624 -1.9878028631210327
H 5.138354301452637 -0.7589517831802368 1.8662935495376587
H 5.125069618225098 -0.7710649371147156 -3.665161609649658
H 5.3714518547058105 -3.1992685794830322 -1.8043105602264404
H 5.019887447357178 3.785745143890381 -1.8328453302383423
H 6.895686149597168 3.1296322345733643 3.6190333366394043
H 7.03204870223999 6.000333786010742 1.6064561605453491
