13
Generated by QM7 dataset
O 2.03309965133667 0.7074567675590515 -1.6228023767471313
C 3.8219900131225586 0.5375704169273376 -0.15233083069324493
C 6.086297512054443 2.293163776397705 -0.14826790988445282
C 7.206149578094482 2.563659191131592 2.503981590270996
O 6.5602030754089355 5.033966064453125 3.473618984222412
C 5.652983665466309 6.303408145904541 1.392350196838379
C 5.353235244750977 4.940103054046631 -0.6915830969810486
H 3.9393041133880615 -1.0951151847839355 1.140846610069275
H 7.490288734436035 1.53449547290802 -1.461854338645935
H 9.276382446289062 2.448971748352051 2.436537265777588
H 6.53376579284668 1.138994574546814 3.845611572265625
H 5.2260942459106445 8.270783424377441 1.6970874071121216
H 4.602994918823242 5.6174187660217285 -2.465676784515381
