17
Generated by QM7 dataset
C 3.6822636127471924 -1.3406473398208618 2.4788482189178467
C 5.494359970092773 -0.14809784293174744 0.6641064286231995
N 6.868096351623535 1.7542517185211182 1.3498125076293945
N 8.417728424072266 2.596634864807129 -0.5000970959663391
C 9.76209831237793 4.789567470550537 0.5345090627670288
C 10.904778480529785 6.6756086349487305 -1.2591434717178345
C 8.629075050354004 7.383197784423828 0.2792259454727173
H 4.250636577606201 -3.3004634380340576 2.796511173248291
H 1.7933311462402344 -1.3266066312789917 1.6445341110229492
H 3.6565256118774414 -0.3254108428955078 4.276242256164551
H 5.594496250152588 -0.9838669896125793 -1.2480318546295166
H 9.68628215789795 1.2420603036880493 -1.0414847135543823
H 10.824786186218262 4.414097785949707 2.2548022270202637
H 10.640915870666504 6.400445938110352 -3.2708513736724854
H 12.704061508178711 7.508354187011719 -0.7485583424568176
H 8.8761568069458 8.679115295410156 1.8439947366714478
H 6.825048446655273 7.549569129943848 -0.6750857830047607
