20
Generated by QM7 dataset
C 0.8588805198669434 1.7616783380508423 -0.8290984630584717
C 3.1047632694244385 1.0162947177886963 0.8097098469734192
C 5.364365577697754 2.837083578109741 0.5991565585136414
N 4.704813480377197 5.3842267990112305 1.4896143674850464
C 7.627879619598389 1.801683783531189 2.119781494140625
C 10.016115188598633 3.4045872688293457 1.8555409908294678
O 9.700209617614746 5.8108134269714355 3.008897542953491
H -0.6120256185531616 0.3103686273097992 -0.7153369188308716
H 1.417578101158142 1.9512934684753418 -2.811326742172241
H 0.019766535609960556 3.546978235244751 -0.209173783659935
H 3.711970090866089 -0.8826910853385925 0.2402786761522293
H 2.4826276302337646 0.8698787093162537 2.782527208328247
H 5.927522659301758 2.9803249835968018 -1.3910274505615234
H 3.889944553375244 5.2515869140625 3.2363827228546143
H 3.333117961883545 6.124942779541016 0.34789857268333435
H 8.058283805847168 -0.11767324805259705 1.4673722982406616
H 7.109868049621582 1.6728044748306274 4.123892784118652
H 10.513283729553223 3.6853060722351074 -0.1316005289554596
H 11.605072975158691 2.4674720764160156 2.788895606994629
H 8.026782035827637 6.403998374938965 2.4569084644317627
