12
Generated by QM7 dataset
C 1.311413288116455 2.3757824897766113 -1.2083287239074707
C -0.5718122124671936 1.9117037057876587 0.8626788854598999
O -2.540717840194702 0.09558235108852386 0.3695737421512604
C -1.370278239250183 -2.3518965244293213 0.24101567268371582
O 1.3324836492538452 -2.1089911460876465 0.34638679027557373
C 1.8918615579605103 0.5096402168273926 0.8478256464004517
H 0.8961459398269653 1.6651133298873901 -3.081500768661499
H 2.3239850997924805 4.154600620269775 -1.1934187412261963
H -0.8740928173065186 3.3560969829559326 2.2748334407806396
H -2.008495330810547 -3.489870548248291 1.8440136909484863
H -1.9014991521835327 -3.2663726806640625 -1.5338151454925537
H 3.3020129203796387 0.9789915084838867 2.250814914703369
