15
Generated by QM7 dataset
C 1.7345985174179077 -0.030934816226363182 0.16839349269866943
C 4.601161956787109 0.0016440617619082332 -0.09082023799419403
C 5.962010383605957 1.9547516107559204 1.6076089143753052
N 7.733307361602783 -0.023205837234854698 2.4584014415740967
C 5.99942684173584 -1.9961366653442383 1.5229302644729614
C 5.369826793670654 0.06459084153175354 -2.7226040363311768
N 5.982079029083252 0.11669059097766876 -4.829119682312012
H 1.1538857221603394 -0.07914172857999802 2.1552703380584717
H 0.9185958504676819 -1.6961992979049683 -0.7537928819656372
H 0.8866972923278809 1.656193733215332 -0.682682454586029
H 4.811356067657471 2.718219757080078 3.1534993648529053
H 6.864014625549316 3.5525150299072266 0.6490075588226318
H 9.432435989379883 0.012717857025563717 1.5381425619125366
H 6.931251049041748 -3.533674478530884 0.4967145025730133
H 4.864060401916504 -2.846891403198242 3.034144163131714
