15
Generated by QM7 dataset
C 8.424701690673828 6.993366241455078 2.7050673961639404
C 10.80607795715332 6.895610809326172 1.8631377220153809
O 11.777755737304688 5.580323696136475 -0.13256429135799408
C 10.070917129516602 4.046489238739014 -1.5580602884292603
C 11.503726959228516 2.9087798595428467 -3.705129384994507
C 12.942242622375488 0.4749448597431183 -3.400127649307251
O 10.517157554626465 0.5581873059272766 -4.617092132568359
H 7.965460300445557 8.152127265930176 4.335050582885742
H 6.882307052612305 5.964240074157715 1.8386090993881226
H 12.313172340393066 7.951173782348633 2.7694504261016846
H 8.538822174072266 5.210125923156738 -2.3278024196624756
H 9.271677017211914 2.570632219314575 -0.34026408195495605
H 12.154057502746582 4.284859657287598 -5.067187309265137
H 13.049541473388672 -0.38174358010292053 -1.5457581281661987
H 14.582619667053223 0.16882812976837158 -4.582869529724121
