15
Generated by QM7 dataset
C 1.8293871879577637 -0.022752301767468452 -0.23470398783683777
C 4.669475555419922 0.01736658252775669 0.15250089764595032
C 5.9837799072265625 -2.2819955348968506 -0.9843016266822815
C 7.600629806518555 -1.5974421501159668 -2.808170795440674
N 7.575685501098633 0.9554077386856079 -3.1069743633270264
C 5.957644939422607 2.07773494720459 -1.4398579597473145
N 5.5246901512146 4.450134754180908 -1.1375962495803833
H 0.9667460918426514 1.6923631429672241 0.5386475324630737
H 0.9755710959434509 -1.653132438659668 0.7120488286018372
H 1.3278917074203491 -0.11005765199661255 -2.2425947189331055
H 5.175147533416748 0.2487635463476181 2.1431195735931396
H 5.649166107177734 -4.197629928588867 -0.36467933654785156
H 8.81171703338623 -2.7875161170959473 -3.944368600845337
H 8.74117374420166 1.8636857271194458 -4.310370922088623
H 6.594331741333008 5.4565653800964355 -2.3929412364959717
