21
Generated by QM7 dataset
C 1.848246693611145 -0.060698002576828 0.003798349527642131
C 4.721688747406006 -0.022298768162727356 0.04741322994232178
C 5.743936061859131 2.6823906898498535 -0.0809180736541748
C 8.641075134277344 2.7611355781555176 -0.03017892688512802
O 9.617798805236816 1.4589442014694214 -2.17698335647583
C 9.610655784606934 5.491071701049805 -0.024188494309782982
C 12.483284950256348 5.6344075202941895 0.08174955099821091
H 1.1566447019577026 -2.0067946910858154 0.11124818027019501
H 1.1234233379364014 0.7823466062545776 -1.7406456470489502
H 1.0672228336334229 0.9882133603096008 1.6063050031661987
H 5.431091785430908 -1.134478211402893 -1.5489518642425537
H 5.3876848220825195 -0.9405167102813721 1.780348777770996
H 4.990540027618408 3.77780818939209 1.5090974569320679
H 5.056283473968506 3.5664422512054443 -1.826495885848999
H 9.332620620727539 1.7791204452514648 1.656968593597412
H 9.01225471496582 2.3214151859283447 -3.682433843612671
H 8.824057579040527 6.511259078979492 1.5983681678771973
H 8.978750228881836 6.4678144454956055 -1.7401354312896729
H 13.210716247558594 4.6757493019104 1.7637380361557007
H 13.094687461853027 7.609038829803467 0.1535213440656662
H 13.3419771194458 4.765908241271973 -1.5868408679962158
