17
Generated by QM7 dataset
C 1.8657643795013428 -0.002796794753521681 0.1020452082157135
C 4.741851806640625 0.04138500243425369 0.05247769504785538
C 5.7135491371154785 0.1551087200641632 -2.670012950897217
C 5.834850788116455 2.135749578475952 1.677944540977478
O 8.297390937805176 1.2278496026992798 2.3058626651763916
C 7.991254806518555 -1.452915906906128 2.4480645656585693
O 5.699886322021484 -2.2032318115234375 1.2227851152420044
H 1.1629563570022583 -0.22540652751922607 2.0378994941711426
H 1.1358387470245361 -1.6191173791885376 -0.9679555296897888
H 1.063084363937378 1.7308191061019897 -0.6928302645683289
H 7.783801078796387 0.11449850350618362 -2.7471516132354736
H 5.062557220458984 1.867710828781128 -3.6339056491851807
H 5.061952590942383 -1.4907293319702148 -3.746873378753662
H 4.7889251708984375 2.3808281421661377 3.4503941535949707
H 5.964334964752197 3.964040756225586 0.7210249900817871
H 9.602359771728516 -2.375574827194214 1.5394842624664307
H 7.910072326660156 -2.03013277053833 4.432976245880127
