10
Generated by QM7 dataset
C -2.343430519104004 -0.02294127456843853 -0.31235283613204956
C -0.7565329670906067 -2.3161239624023438 0.23067887127399445
C 1.7556122541427612 -1.1461756229400635 -0.11223083734512329
N 1.792197346687317 1.288509726524353 -0.1020830050110817
O -0.7416041493415833 2.089545726776123 0.22557660937309265
H -2.9049816131591797 0.0733213722705841 -2.3026123046875
H -4.037985801696777 0.06083028391003609 0.8673276305198669
H -1.0881232023239136 -3.875525951385498 -1.0764257907867432
H -0.9251154065132141 -2.974447727203369 2.1816132068634033
H 3.464094877243042 -2.315141201019287 -0.2699284851551056
