12
Generated by QM7 dataset
C 5.836948394775391 -2.2540652751922607 1.0153120756149292
O 4.509189128875732 0.02834589220583439 0.5187487006187439
C 5.84647274017334 2.173959732055664 0.37563976645469666
C 4.8839216232299805 4.559096813201904 -0.08966750651597977
C 6.832172393798828 6.407154083251953 -0.11334577202796936
N 9.172730445861816 5.5977277755737305 0.29634684324264526
S 9.068644523620605 2.49517560005188 0.7320232391357422
H 4.4550862312316895 -3.7916977405548096 1.064974069595337
H 6.77221155166626 -2.1880571842193604 2.8597793579101562
H 7.191598415374756 -2.673168897628784 -0.49144217371940613
H 2.9000492095947266 4.933810234069824 -0.3919103145599365
H 6.578117847442627 8.412776947021484 -0.4351661205291748
