15
Generated by QM7 dataset
C 4.6454949378967285 -1.4694888591766357 0.5610786080360413
O 6.116117477416992 0.03616935759782791 -1.1187556982040405
N 6.372969150543213 2.418376922607422 0.016724076122045517
C 8.707404136657715 3.5025885105133057 -0.4055541157722473
N 10.654389381408691 2.1393022537231445 -1.0378564596176147
C 9.161883354187012 6.27048921585083 -0.1719839721918106
C 7.498565673828125 7.891345024108887 0.8283236622810364
H 4.494392395019531 -3.3677566051483154 -0.24103456735610962
H 2.7418415546417236 -0.682682454586029 0.752016544342041
H 5.5583271980285645 -1.6072876453399658 2.412386655807495
H 4.888324737548828 3.581106662750244 -0.3497694134712219
H 9.979757308959961 0.31824877858161926 -1.1311144828796387
H 10.989834785461426 6.913298606872559 -0.8482035994529724
H 5.68981409072876 7.313013553619385 1.5907903909683228
H 7.969390869140625 9.88460922241211 0.9542549848556519
