19
Generated by QM7 dataset
N 3.864206552505493 5.0254621505737305 -4.905313491821289
C 6.305260181427002 5.188564300537109 -3.613609790802002
C 6.694657325744629 2.936521053314209 -1.835925579071045
C 9.220314025878906 3.0661561489105225 -0.47256380319595337
N 9.425122261047363 5.034476280212402 1.484512209892273
C 10.593786239624023 0.6087563633918762 0.009637603536248207
C 11.571624755859375 2.4094197750091553 -1.9513500928878784
H 3.654409170150757 6.574149131774902 -6.031193256378174
H 2.452543258666992 5.1253342628479 -3.5982275009155273
H 6.3989715576171875 6.969347953796387 -2.561769485473633
H 7.808896541595459 5.235901832580566 -5.034173965454102
H 6.559976577758789 1.1763545274734497 -2.9280173778533936
H 5.172634124755859 2.869076728820801 -0.426908016204834
H 11.196249008178711 5.08289098739624 2.242405652999878
H 8.243590354919434 4.634685516357422 2.954624652862549
H 9.745261192321777 -1.1400339603424072 -0.6419588923454285
H 11.679206848144531 0.39340317249298096 1.7338804006576538
H 13.300912857055664 3.431175708770752 -1.5530147552490234
H 11.373580932617188 1.877216100692749 -3.9199724197387695
