12
Generated by QM7 dataset
N 1.8558810949325562 -0.12746202945709229 0.011527329683303833
C 4.400114059448242 -0.049718692898750305 -0.3425128757953644
N 5.654041767120361 -2.1377527713775635 -0.531825602054596
C 5.737492084503174 2.410780429840088 -0.5120590925216675
C 8.255779266357422 2.490677833557129 -0.7640729546546936
C 9.576583862304688 4.812981128692627 -0.9366427659988403
N 10.63244915008545 6.73209285736084 -1.067657470703125
H 1.0173341035842896 1.4356437921524048 0.7359727621078491
H 1.1269570589065552 -1.7511335611343384 0.7127479910850525
H 4.4399495124816895 -3.636664628982544 -0.44315966963768005
H 4.597836017608643 4.1107025146484375 -0.43960699439048767
H 9.371964454650879 0.7725011706352234 -0.84644615650177
