18
Generated by QM7 dataset
C 4.4789719581604 -0.8630946278572083 -2.874878168106079
C 4.590579509735107 0.12128262221813202 -0.17667049169540405
C 6.293392658233643 2.4367263317108154 0.0111682815477252
N 5.146725654602051 4.762299060821533 -1.0636701583862305
C 6.1136040687561035 6.2274603843688965 1.1060000658035278
C 6.377013206481934 3.7564542293548584 2.630706548690796
O 8.646970748901367 3.436164617538452 4.110608100891113
H 3.307360887527466 -2.564944267272949 -2.9699692726135254
H 6.369113922119141 -1.3404016494750977 -3.5691447257995605
H 3.670056104660034 0.5453938841819763 -4.156282424926758
H 5.336378574371338 -1.3756450414657593 1.0458122491836548
H 2.673414468765259 0.5406695604324341 0.48847532272338867
H 8.18952465057373 2.061577796936035 -0.7492386102676392
H 3.2193186283111572 4.71507453918457 -1.1461000442504883
H 7.902664661407471 7.19403600692749 0.7134661078453064
H 4.777114391326904 7.6043524742126465 1.8752130270004272
H 4.709499835968018 3.3741250038146973 3.8038675785064697
H 10.027643203735352 3.828169345855713 2.9606528282165527
