14
Generated by QM7 dataset
C 1.8290659189224243 -0.11944958567619324 -0.018160268664360046
C 4.5879716873168945 0.24154479801654816 0.0015684727113693953
C 6.147430419921875 2.314347505569458 0.012302117422223091
C 8.611047744750977 1.2853350639343262 0.029876569285988808
C 11.060056686401367 2.631027936935425 0.04779117554426193
N 8.55016040802002 -1.244063377380371 0.029876569285988808
O 6.017152786254883 -1.8928064107894897 0.01171630248427391
H 0.841702938079834 1.6977299451828003 -0.003684965893626213
H 1.2256574630737305 -1.1912267208099365 1.6439294815063477
H 1.2448570728302002 -1.1550761461257935 -1.7102020978927612
H 5.5943074226379395 4.277716159820557 0.0082203084602952
H 10.784628868103027 4.681645393371582 0.022997967898845673
H 12.185426712036133 2.1187987327575684 -1.610934853553772
H 12.141093254089355 2.1529459953308105 1.745691180229187
