15
Generated by QM7 dataset
C 2.9738242626190186 4.85207986831665 0.7741829752922058
N 5.207272529602051 4.46757698059082 -0.13681617379188538
N 6.400407791137695 2.4473464488983154 0.883730411529541
C 8.93967056274414 1.9370638132095337 -0.13188399374485016
C 10.91379165649414 3.4249584674835205 1.3852258920669556
O 11.346747398376465 1.2691779136657715 3.0430071353912354
C 10.055970191955566 -0.3601629137992859 1.242173671722412
H 1.8439759016036987 6.452092170715332 0.07201746106147766
H 2.0930228233337402 3.649514675140381 2.2331082820892334
H 6.341826438903809 2.4430947303771973 2.8208508491516113
H 9.125260353088379 1.9459643363952637 -2.187546968460083
H 10.261496543884277 5.0860276222229 2.429696559906006
H 12.63835620880127 3.905704975128174 0.3465379774570465
H 11.421429634094238 -1.4610228538513184 0.14316564798355103
H 8.731820106506348 -1.6489183902740479 2.1703126430511475
