14
Generated by QM7 dataset
C 2.0359153747558594 -0.2554909586906433 -0.4147382080554962
N 4.70445442199707 -0.000925965781789273 0.2166759967803955
C 5.594912052154541 2.618555784225464 0.0
C 4.562554836273193 4.185970306396484 2.064866065979004
C 3.721418857574463 5.46446418762207 3.7420167922973633
C 8.323677062988281 2.618555784225464 0.0
C 10.572752952575684 2.618555784225464 0.0
H 1.4990252256393433 -2.2501347064971924 -0.3012601435184479
H 1.6433814764022827 0.39073866605758667 -2.34084153175354
H 0.8243741393089294 0.774617612361908 0.9071441292762756
H 5.728893756866455 -1.076973795890808 -1.0062791109085083
H 4.9622697830200195 3.4044172763824463 -1.8132678270339966
H 2.983083963394165 6.584656238555908 5.2435173988342285
H 12.585991859436035 2.6162314414978027 0.021127138286828995
