17
Generated by QM7 dataset
C 2.8882951736450195 1.149010181427002 -2.8583998680114746
C 3.38688063621521 2.2494544982910156 -0.2470061033964157
C 5.473156929016113 4.1989336013793945 -0.27865901589393616
C 4.688202857971191 6.832456111907959 -0.8973175287246704
O 2.4984636306762695 7.401452541351318 -1.3966965675354004
C 7.8795342445373535 3.583657741546631 0.27971726655960083
C 10.180842399597168 5.219083309173584 0.3913244903087616
H 1.351116418838501 -0.2320394665002823 -2.7641968727111816
H 4.565445899963379 0.18088458478450775 -3.588930130004883
H 2.3481547832489014 2.6160991191864014 -4.21148157119751
H 3.8761684894561768 0.7039796710014343 1.047040581703186
H 1.641756296157837 3.07275128364563 0.5106040239334106
H 6.177741527557373 8.277680397033691 -0.884183943271637
H 8.272446632385254 1.6076089143753052 0.7153180241584778
H 9.822739601135254 7.2129902839660645 0.012245425023138523
H 11.571757316589355 4.553465366363525 -0.9889503717422485
H 11.033146858215332 5.0822672843933105 2.2716965675354004
