20
Generated by QM7 dataset
C 1.8877041339874268 -0.0124343978241086 -0.3324972987174988
C 4.754966735839844 0.014494199305772781 -0.1289360076189041
N 5.672693252563477 2.620558738708496 -0.13339576125144958
C 8.421205520629883 2.6948440074920654 0.0860203355550766
C 9.281390190124512 5.391294002532959 0.07154503464698792
C 10.576797485351562 6.4928154945373535 1.9558665752410889
C 11.446297645568848 9.17766284942627 1.9132153987884521
H 1.1941368579864502 -1.9610066413879395 -0.33355554938316345
H 1.2537387609481812 0.8907790780067444 -2.083139657974243
H 1.011853814125061 0.9739081859588623 1.2619590759277344
H 5.551183700561523 -1.0292960405349731 -1.7306678295135498
H 5.317405700683594 -0.9522141218185425 1.6147520542144775
H 4.912664413452148 3.5691068172454834 1.3611130714416504
H 9.294958114624023 1.7272474765777588 -1.5232893228530884
H 9.040034294128418 1.7363560199737549 1.8162535429000854
H 8.812662124633789 6.472690105438232 -1.6144497394561768
H 11.047886848449707 5.412515640258789 3.6399149894714355
H 10.983881950378418 10.123225212097168 0.13229972124099731
H 13.496745109558105 9.255614280700684 2.168649673461914
H 10.55827808380127 10.230524063110352 3.455761194229126
