17
Generated by QM7 dataset
C 1.9458887577056885 -0.22918598353862762 -0.16070230305194855
C 4.760408878326416 0.15730080008506775 -0.6468154788017273
C 5.583951950073242 -1.100784420967102 -3.0658726692199707
C 7.329510688781738 -2.928924322128296 -3.207583427429199
C 5.348378658294678 2.9801547527313232 -0.8312716484069824
C 7.421124458312988 3.962585687637329 0.8566884398460388
O 4.224898338317871 4.398035049438477 -2.2974722385406494
H 1.3650058507919312 0.7512039542198181 1.566847562789917
H 1.5011606216430664 -2.238720655441284 0.06205860525369644
H 0.7880724668502808 0.5126070976257324 -1.7109580039978027
H 5.807071685791016 -0.620510458946228 0.9637981057167053
H 4.687975883483887 -0.44414234161376953 -4.801510810852051
H 8.284010887145996 -3.6555428504943848 -1.5434527397155762
H 7.834785461425781 -3.7496135234832764 -5.019414901733398
H 6.930117130279541 3.6077139377593994 2.8300349712371826
H 7.635079383850098 5.999162197113037 0.5824514031410217
H 9.201946258544922 3.0312907695770264 0.3826695382595062
