15
Generated by QM7 dataset
C 1.9497627019882202 -0.059583064168691635 0.23147255182266235
N 4.7038116455078125 0.002834589220583439 0.06474201381206512
C 5.770599842071533 2.150035858154297 1.4739296436309814
C 8.341723442077637 1.2261110544204712 2.3871586322784424
C 7.943577289581299 -1.5724788904190063 2.5461792945861816
O 9.29875659942627 -3.093198299407959 3.6243245601654053
N 5.820488929748535 -2.1246190071105957 1.141829252243042
H 1.20428466796875 -1.651261568069458 -0.8627733588218689
H 1.1383521556854248 1.6655101776123047 -0.5750436782836914
H 1.2817256450653076 -0.25269418954849243 2.1827471256256104
H 4.610686302185059 2.6321427822113037 3.1263439655303955
H 5.936990261077881 3.836087465286255 0.2876919209957123
H 9.833001136779785 1.6128623485565186 1.0080366134643555
H 8.829802513122559 2.0090811252593994 4.2340826988220215
H 5.261942386627197 -3.92887282371521 0.8183647990226746
