13
Generated by QM7 dataset
O 4.141674995422363 -1.6691950559616089 -0.9518361687660217
C 3.9032859802246094 0.41530510783195496 0.020541323348879814
C 6.038166522979736 2.214380979537964 0.09819017350673676
C 6.713138580322266 3.7179605960845947 -2.2243776321411133
C 5.527410984039307 5.022891998291016 0.008484870195388794
C 7.060224533081055 6.662210464477539 1.5279759168624878
C 8.337868690490723 8.035191535949707 2.8004796504974365
H 2.117570400238037 1.0317904949188232 0.8989049196243286
H 7.615464210510254 1.555471420288086 1.2328951358795166
H 5.576109409332275 3.46490740776062 -3.910750389099121
H 8.702567100524902 4.021923065185547 -2.6130378246307373
H 3.5807852745056152 5.630401134490967 -0.231056809425354
H 9.47663688659668 9.256275177001953 3.928022623062134
