11
Generated by QM7 dataset
O 4.580110549926758 -0.9451465010643005 2.563772439956665
C 4.426513195037842 0.04306685924530029 0.0741528570652008
C 5.43917989730835 2.690157413482666 0.06421289592981339
C 3.923128128051758 4.72240686416626 -0.12793445587158203
C 8.11412525177002 3.025413751602173 0.16750532388687134
N 10.288368225097656 3.3155055046081543 0.1888403296470642
H 4.0263447761535645 -2.695467472076416 2.486539363861084
H 2.445740222930908 -0.020635809749364853 -0.5254005789756775
H 5.517282009124756 -1.1675106287002563 -1.2028295993804932
H 1.8822239637374878 4.53092098236084 -0.22468844056129456
H 4.679661273956299 6.631937026977539 -0.1593039184808731
