17
Generated by QM7 dataset
C 1.7768906354904175 0.005555795039981604 -0.12855806946754456
C 4.601766586303711 0.007521110121160746 0.018235856667160988
C 5.962501525878906 2.1547980308532715 -0.0007369932136498392
C 8.78783130645752 2.1952381134033203 0.25433823466300964
O 9.778822898864746 -0.1635179966688156 1.128582239151001
C 8.770691871643066 -2.2429537773132324 -0.2648451030254364
C 5.931358814239502 -2.501222610473633 0.22306327521800995
H 1.0314692258834839 -1.9190925359725952 -0.280246376991272
H 1.125520944595337 1.0565080642700195 -1.7896273136138916
H 0.9617004990577698 0.8618474006652832 1.5701167583465576
H 5.028069972991943 3.9741885662078857 -0.17068006098270416
H 9.66734790802002 2.6782710552215576 -1.557550072669983
H 9.339309692382812 3.6369481086730957 1.6323076486587524
H 9.747056007385254 -3.9600155353546143 0.35029852390289307
H 9.17624568939209 -1.9860832691192627 -2.2824113368988037
H 5.618968486785889 -3.242713451385498 2.1339354515075684
H 5.142398357391357 -3.863091468811035 -1.1235177516937256
