14
Generated by QM7 dataset
C 1.8161969184875488 -0.14237196743488312 0.1315816342830658
C 4.648839473724365 -0.161911740899086 -0.005215643905103207
C 6.011804580688477 -2.256843328475952 0.4343913495540619
C 5.855391979217529 2.322756767272949 -0.6676969528198242
C 8.692532539367676 2.501638412475586 -0.8521153330802917
O 4.519128799438477 4.189314842224121 -1.0539380311965942
H 1.1684365272521973 1.1948360204696655 1.5717041492462158
H 1.0535789728164673 -2.0033364295959473 0.6209073066711426
H 1.0053342580795288 0.40345653891563416 -1.6922119855880737
H 5.0875020027160645 -4.027932167053223 0.9098086357116699
H 8.057981491088867 -2.3108327388763428 0.34517738223075867
H 9.39192008972168 1.24610435962677 -2.3356258869171143
H 9.556269645690918 2.0457420349121094 0.9679177403450012
H 9.222052574157715 4.43855094909668 -1.3472235202789307
