12
Generated by QM7 dataset
C 1.6651133298873901 -0.0599043183028698 -0.007351034786552191
N 4.382350444793701 0.05138165503740311 0.021618466824293137
S 5.971874713897705 2.832831859588623 -0.038248058408498764
C 8.813776969909668 1.2183820009231567 -0.035545747727155685
C 8.584893226623535 -1.2969757318496704 -0.007332137320190668
C 5.899573802947998 -2.0689098834991455 0.014550890773534775
O 5.236979007720947 -4.277395248413086 0.02040904201567173
H 0.8261693716049194 1.8272895812988281 0.05867599695920944
H 1.026007890701294 -1.1599516868591309 1.62267005443573
H 1.0568293333053589 -1.0342093706130981 -1.7267372608184814
H 10.6049165725708 2.204894542694092 -0.056729577481746674
H 10.084428787231445 -2.6706366539001465 -0.0037227605935186148
