19
Generated by QM7 dataset
C 2.0934953689575195 0.18158377707004547 0.3135622441768646
C 4.953897953033447 0.10656165331602097 -0.07772443443536758
C 5.594232082366943 -1.455240249633789 -2.421381711959839
C 5.964599132537842 2.795339584350586 -0.3786066174507141
C 5.959704875946045 4.495072841644287 1.9800928831100464
C 8.764966011047363 4.835979461669922 1.4241732358932495
O 8.716758728027344 2.82789945602417 -0.4302717447280884
H 1.605303406715393 1.242098093032837 2.0218558311462402
H 1.3267199993133545 -1.7296851873397827 0.5147802829742432
H 1.1402040719985962 1.0950584411621094 -1.2804973125457764
H 5.824362754821777 -0.7974077463150024 1.5723844766616821
H 4.788207054138184 -0.6110618710517883 -4.132037162780762
H 4.862038612365723 -3.3810791969299316 -2.2467331886291504
H 7.642241477966309 -1.5789984464645386 -2.6928787231445312
H 5.221861362457275 3.7505016326904297 -2.0650360584259033
H 5.563807487487793 3.5391924381256104 3.7689263820648193
H 4.816137313842773 6.20759916305542 1.8286502361297607
H 9.28972339630127 6.639741897583008 0.5610786080360413
H 10.035541534423828 4.4048380851745605 2.9945545196533203
