20
Generated by QM7 dataset
C 2.2002458572387695 0.41199809312820435 0.22697500884532928
C 5.049574851989746 -0.1331879049539566 0.0020598014816641808
C 5.850421905517578 -1.8257399797439575 2.228837490081787
C 5.530869483947754 -1.5945698022842407 -2.471478223800659
C 6.452469825744629 2.3728156089782715 -0.12704628705978394
C 7.09414529800415 3.913792848587036 2.189531087875366
N 9.054452896118164 2.585296630859375 0.7717830538749695
H 1.5300734043121338 1.5638995170593262 -1.3590154647827148
H 1.777287483215332 1.4548813104629517 1.9658820629119873
H 1.0951151847839355 -1.3390599489212036 0.25021862983703613
H 5.459513187408447 -0.9316349625587463 4.053368091583252
H 7.871861934661865 -2.268181562423706 2.1628670692443848
H 4.8234124183654785 -3.6250805854797363 2.20007586479187
H 4.92608118057251 -0.4983585774898529 -4.121870517730713
H 4.505598545074463 -3.3935513496398926 -2.49861478805542
H 7.54671573638916 -2.005925416946411 -2.7112655639648438
H 6.002563953399658 3.4227476119995117 -1.8336390256881714
H 6.683375358581543 3.179199695587158 4.0524797439575195
H 7.079745769500732 5.955642223358154 2.040337324142456
H 10.063831329345703 3.8083271980285645 -0.3295871317386627
