17
Generated by QM7 dataset
C 8.595324516296387 -2.5445163249969482 -1.0692826509475708
C 6.346985340118408 -0.9166116714477539 -0.30641910433769226
O 5.462385654449463 -1.6621086597442627 2.131535530090332
C 6.890848636627197 1.9226452112197876 -0.35708266496658325
C 8.967487335205078 2.659468173980713 1.4662574529647827
N 11.270326614379883 3.3654887676239014 0.5753270983695984
N 8.60494327545166 2.630309820175171 3.882688045501709
H 9.288854598999023 -2.0345358848571777 -2.9487853050231934
H 8.051593780517578 -4.542372703552246 -1.0879342555999756
H 10.15176010131836 -2.3792030811309814 0.28455495834350586
H 4.796408176422119 -1.2898136377334595 -1.6275076866149902
H 6.9390363693237305 -1.8249274492263794 3.2267074584960938
H 5.189660549163818 2.969099998474121 0.19615356624126434
H 7.410088539123535 2.5181355476379395 -2.2710540294647217
H 11.315585136413574 4.287108421325684 -1.1013134717941284
H 12.330916404724121 4.2117838859558105 1.9343047142028809
H 6.771795749664307 2.094818115234375 4.2625041007995605
