15
Generated by QM7 dataset
C 1.9584743976593018 0.08407391607761383 0.035375673323869705
C 4.763810634613037 -0.06976868957281113 0.0320308580994606
C 6.141005039215088 -2.1979026794433594 -0.07524889707565308
C 8.755857467651367 -1.2815933227539062 -0.05776892974972725
N 10.67001724243164 -2.7342824935913086 -0.3667391538619995
N 8.86181354522705 1.2730896472930908 0.2531666159629822
C 6.326028347015381 2.3085083961486816 0.13700515031814575
H 1.0919026136398315 -1.7921217679977417 -0.07530558854341507
H 1.2954450845718384 1.1872014999389648 -1.5834581851959229
H 1.289209008216858 0.9930889010429382 1.7682923078536987
H 5.577602386474609 -4.143904685974121 -0.19534099102020264
H 12.276832580566406 -1.6689683198928833 -0.24483291804790497
H 10.243562698364258 2.216214179992676 -0.667810320854187
H 6.066455364227295 3.4555532932281494 -1.5633326768875122
H 5.918149948120117 3.424448251724243 1.8276864290237427
