17
Generated by QM7 dataset
C 5.805333137512207 -1.849002480506897 -2.724285840988159
C 4.768005847930908 -0.5921456813812256 -0.35033631324768066
O 5.01251745223999 -2.286303997039795 1.7324063777923584
C 6.032704830169678 1.9615734815597534 0.2353464961051941
N 8.747504234313965 1.7212003469467163 0.5868733525276184
C 9.956059455871582 1.0679031610488892 2.7520270347595215
N 8.984797477722168 0.36464154720306396 4.855084419250488
H 5.6291728019714355 -0.60698002576828 -4.368725776672363
H 4.773599624633789 -3.6019504070281982 -3.112511157989502
H 7.792247772216797 -2.3788816928863525 -2.4972541332244873
H 2.740159511566162 -0.26441046595573425 -0.6129137873649597
H 6.818604469299316 -2.4987847805023193 2.057817220687866
H 5.1855974197387695 2.7952451705932617 1.9319047927856445
H 5.683502674102783 3.279506206512451 -1.3252649307250977
H 9.829353332519531 2.2054805755615234 -0.9212036728858948
H 12.031319618225098 1.1389001607894897 2.5605788230895996
H 7.049698829650879 0.3945181369781494 4.763016700744629
