14
Generated by QM7 dataset
O 2.2428781986236572 0.5643100142478943 0.06032005697488785
C 4.828401565551758 -0.1475309133529663 -0.06530893594026566
C 5.312265872955322 -1.4721533060073853 -2.451390504837036
C 5.693971633911133 -2.573976993560791 -4.400189399719238
C 6.433950424194336 2.1900036334991455 -0.1771807223558426
C 6.88956356048584 3.7220046520233154 2.1904759407043457
N 8.923551559448242 2.264005184173584 1.046624779701233
H 1.9921681880950928 1.2767934799194336 1.7311214208602905
H 5.275605201721191 -1.3497557640075684 1.5594775676727295
H 6.02282190322876 -3.5528552532196045 -6.128759860992432
H 6.210906028747559 3.243034601211548 -1.9240057468414307
H 6.198604106903076 3.0211997032165527 3.9844307899475098
H 7.014058589935303 5.758524417877197 2.0291690826416016
H 10.125587463378906 3.391132354736328 0.0379645973443985
