17
Generated by QM7 dataset
C 1.548120379447937 -0.016421720385551453 -0.22039875388145447
C 4.337979793548584 -0.556448757648468 -0.06402391940355301
O 5.157346248626709 -2.707089424133301 -0.39833536744117737
C 6.026695728302002 1.6986370086669922 0.49219807982444763
C 8.779194831848145 1.053314447402954 0.7351223826408386
C 10.594919204711914 1.564353108406067 -1.399587869644165
C 10.703862190246582 3.1422176361083984 0.9606989622116089
H 0.9329766631126404 0.9789159297943115 1.4806760549545288
H 0.4983207881450653 -1.7946540117263794 -0.3543236553668976
H 1.1569470167160034 1.1277885437011719 -1.895735502243042
H 5.388327121734619 2.527414321899414 2.2797656059265137
H 5.731595993041992 3.095465898513794 -1.0085090398788452
H 9.089035034179688 -0.618809700012207 1.8834145069122314
H 9.894208908081055 2.4434726238250732 -3.111377477645874
H 12.093547821044922 0.2031455636024475 -1.7190083265304565
H 12.282502174377441 2.851313352584839 2.2351114749908447
H 10.071219444274902 5.0864434242248535 0.8447831869125366
