15
Generated by QM7 dataset
N 3.9059693813323975 -0.6806604266166687 -2.826727867126465
N 3.701482057571411 1.0898239612579346 -0.851567268371582
C 1.5655624866485596 1.0448296070098877 0.6790353059768677
O -0.28200381994247437 -0.31741729378700256 0.3600117266178131
C 5.908077716827393 2.543306827545166 -0.2748984694480896
C 7.232813358306885 4.103124618530273 -2.2585062980651855
C 5.824967384338379 5.38923454284668 -0.16470852494239807
H 2.9995055198669434 0.08641717582941055 -4.349828243255615
H 2.7853808403015137 -2.186753273010254 -2.3357582092285156
H 1.701244831085205 2.3917129039764404 2.2630414962768555
H 7.119448661804199 1.5970830917358398 1.089616060256958
H 6.430473327636719 4.166543960571289 -4.1413726806640625
H 9.279746055603027 4.140427589416504 -2.220900535583496
H 6.919458866119385 6.322192192077637 1.293252944946289
H 4.079994201660156 6.3455491065979 -0.6491020321846008
