17
Generated by QM7 dataset
C 3.5044970512390137 0.3054931163787842 -1.4484373331069946
N 3.4098784923553467 -0.05295012518763542 1.274695873260498
C 0.9949408173561096 0.08534003049135208 -0.09048008918762207
C -0.6585695743560791 2.346435070037842 0.3246549367904663
C -3.276785135269165 1.3312175273895264 -0.31087884306907654
N -3.138192653656006 -1.3439165353775024 0.3947637975215912
C -0.6419966816902161 -2.220844030380249 -0.4369613826274872
H 4.122570037841797 2.1498470306396484 -2.081571102142334
H 4.1913557052612305 -1.2743746042251587 -2.5515081882476807
H 3.798689603805542 -1.8735690116882324 1.7801220417022705
H -0.5783506631851196 2.9548513889312744 2.304426431655884
H -0.16143929958343506 3.9450490474700928 -0.8903444409370422
H -4.76641845703125 2.323720693588257 0.7212706804275513
H -3.6531808376312256 1.506829857826233 -2.341540813446045
H -4.53264045715332 -2.3542020320892334 -0.45903337001800537
H -0.7031670808792114 -2.769639253616333 -2.435025453567505
H -0.023848343640565872 -3.838071584701538 0.6949467658996582
