17
Generated by QM7 dataset
C 1.8608511686325073 -0.021070446819067 -0.08634158968925476
C 4.73990535736084 0.07201746106147766 -0.06451524794101715
C 5.844336986541748 -1.4535584449768066 -2.2443900108337402
S 5.910760879516602 3.269906520843506 -0.026267193257808685
C 4.864911079406738 4.66123628616333 -2.9029595851898193
O 4.661557674407959 4.600670337677002 2.0212321281433105
O 8.64925765991211 3.1661794185638428 -0.121452696621418
H 1.0630087852478027 1.0538814067840576 1.4905593395233154
H 1.1954596042633057 -1.9734220504760742 0.08407391607761383
H 1.083776831626892 0.7569864988327026 -1.8376452922821045
H 5.409114360809326 -0.751052737236023 1.7168161869049072
H 5.215360641479492 -0.7330814599990845 -4.077972412109375
H 5.2605438232421875 -3.435011863708496 -2.1139042377471924
H 7.912264347076416 -1.4056349992752075 -2.2229225635528564
H 5.662961006164551 3.625779628753662 -4.495696067810059
H 5.542302131652832 6.611395835876465 -2.9409050941467285
H 2.805298328399658 4.648102760314941 -2.962296962738037
