19
Generated by QM7 dataset
C 4.063572406768799 -0.4165901243686676 0.8745274543762207
C 5.330048084259033 -0.959697425365448 -1.6751855611801147
C 3.803565263748169 -2.9447412490844727 -3.198796033859253
N 3.7053372859954834 -5.4289374351501465 -1.9725717306137085
N 5.453560829162598 1.4296345710754395 -3.1168007850646973
C 7.721798896789551 2.9208929538726807 -2.5923829078674316
C 7.437395095825195 1.4846255779266357 -5.034041404724121
H 5.1144304275512695 1.0113247632980347 1.9432053565979004
H 3.984903335571289 -2.120934009552002 2.044834852218628
H 2.125809669494629 0.2717237174510956 0.6251214146614075
H 7.222929954528809 -1.731707215309143 -1.3035330772399902
H 4.649595737457275 -3.1948277950286865 -5.073744773864746
H 1.8635534048080444 -2.276496410369873 -3.489889621734619
H 5.486630916595459 -6.143896579742432 -1.8272895812988281
H 2.7259111404418945 -6.6430487632751465 -3.1024200916290283
H 9.060500144958496 2.2328436374664307 -1.2076483964920044
H 7.476437091827393 4.950628757476807 -2.636035680770874
H 7.00162410736084 2.5509791374206543 -6.727292537689209
H 8.579432487487793 -0.18757422268390656 -5.325078010559082
