16
Generated by QM7 dataset
N 3.0207462310791016 0.24745963513851166 -2.5821406841278076
C 5.642476558685303 0.19592680037021637 -1.632704496383667
C 6.087015628814697 2.399423122406006 0.21716733276844025
O 4.247008323669434 2.2183682918548584 2.19695782661438
C 8.655909538269043 2.506627321243286 1.3976792097091675
C 10.586718559265137 0.4090123176574707 1.3453527688980103
O 10.707112312316895 2.496309280395508 -0.381346732378006
H 2.7621936798095703 -1.2706140279769897 -3.7462308406829834
H 2.7978339195251465 1.7983390092849731 -3.7096269130706787
H 6.967193603515625 0.2639758288860321 -3.2178256511688232
H 5.890370845794678 -1.6090261936187744 -0.6517476439476013
H 5.7434258460998535 4.197195053100586 -0.75570148229599
H 2.7164623737335205 1.6290762424468994 1.3365654945373535
H 8.744292259216309 3.8733904361724854 2.919437885284424
H 10.104328155517578 -1.4247022867202759 0.585210382938385
H 11.979598045349121 0.3482387363910675 2.8461921215057373
