19
Generated by QM7 dataset
C 2.955380439758301 0.09346585720777512 0.848430335521698
C 5.337039947509766 -0.18266092240810394 -0.7683248519897461
C 4.69307804107666 -1.5779402256011963 -3.2308270931243896
O 6.92607307434082 -2.2929182052612305 -4.553597450256348
C 6.439922332763672 2.4041852951049805 -1.2992812395095825
C 8.078730583190918 3.671170949935913 0.6601191163063049
C 9.234827041625977 2.7403485774993896 -1.7575775384902954
H 3.373671293258667 1.0761423110961914 2.6226563453674316
H 2.162961721420288 -1.7598263025283813 1.3197280168533325
H 1.4994220733642578 1.1837244033813477 -0.14016099274158478
H 6.725592136383057 -1.3075015544891357 0.28368568420410156
H 3.53263521194458 -0.41717594861984253 -4.493126392364502
H 3.6519713401794434 -3.3188881874084473 -2.8251595497131348
H 7.807743549346924 -0.7414529323577881 -4.996284484863281
H 5.155569553375244 3.6038777828216553 -2.3570175170898438
H 8.528617858886719 2.6554808616638184 2.3826234340667725
H 7.883559703826904 5.695653438568115 0.9158557653427124
H 9.822342872619629 4.138556957244873 -3.135263442993164
H 10.464075088500977 1.1027497053146362 -1.649749755859375
