19
Generated by QM7 dataset
C 1.8877986669540405 -0.9330334067344666 0.045920345932245255
C 4.719401836395264 -0.6248379349708557 -0.3972204327583313
C 5.503506183624268 -2.023707628250122 -2.7955663204193115
O 5.315156936645508 1.9840612411499023 -0.7836694121360779
C 5.75034236907959 3.5593369007110596 1.2348793745040894
C 6.321417331695557 6.22131872177124 0.42705920338630676
C 5.696314811706543 2.92136549949646 3.690484046936035
H 1.2822736501693726 0.07534337788820267 1.7477132081985474
H 1.3760607242584229 -2.926222085952759 0.25779643654823303
H 0.8024343848228455 -0.1357957273721695 -1.5281648635864258
H 5.8116068840026855 -1.4282171726226807 1.1669058799743652
H 4.520186901092529 -1.2700093984603882 -4.455369472503662
H 5.105794429779053 -4.048492431640625 -2.650473117828369
H 7.529632568359375 -1.7745473384857178 -3.14250111579895
H 8.018220901489258 6.257412433624268 -0.7556825876235962
H 6.640970230102539 7.481652736663818 2.0364444255828857
H 4.742664337158203 6.983936309814453 -0.6708716750144958
H 5.281557559967041 1.0345494747161865 4.358313083648682
H 6.071860313415527 4.320764541625977 5.145025253295898
