12
Generated by QM7 dataset
O 5.582043170928955 -1.6156213283538818 -1.6373343467712402
C 4.1243462562561035 0.057390984147787094 -0.09560124576091766
C 5.2948994636535645 2.6207289695739746 0.15747088193893433
N 3.9445388317108154 4.449511528015137 1.2552883625030518
S 5.639131546020508 7.083317279815674 1.3130762577056885
C 8.248144149780273 5.838006496429443 -0.12406051903963089
C 7.780002593994141 3.3326642513275146 -0.6573412418365479
H 4.622931480407715 -3.178727149963379 -1.7400031089782715
H 3.933370351791382 -0.8071398138999939 1.7758322954177856
H 2.2429726123809814 0.22245855629444122 -0.9448630809783936
H 9.919965744018555 6.948806285858154 -0.4934830963611603
H 9.107762336730957 2.0750515460968018 -1.5730836391448975
