12
Generated by QM7 dataset
O 1.7578610181808472 -0.10869704931974411 0.008730534464120865
C 4.075931549072266 -0.029668699949979782 -0.004327472764998674
N 5.481112957000732 -2.2037229537963867 0.021731849759817123
C 8.04326057434082 -2.315462589263916 0.011961966753005981
C 9.362251281738281 -0.1771051287651062 -0.028893912211060524
C 8.069735527038574 2.319336414337158 -0.06487429887056351
O 5.352762699127197 2.1967878341674805 -0.04367157071828842
H 4.44401216506958 -3.810727119445801 0.05160842090845108
H 8.908357620239258 -4.174405097961426 0.03821026161313057
H 11.411905288696289 -0.21352015435695648 -0.037832316011190414
H 8.647273063659668 3.4295506477355957 1.5823243856430054
H 8.62397289276123 3.369532823562622 -1.758957028388977
