12
Generated by QM7 dataset
C 5.268783092498779 -2.0647902488708496 0.7980124354362488
C 4.171589374542236 0.1609857678413391 0.3095749318599701
C 5.607630252838135 2.4201345443725586 0.15495754778385162
C 4.82554817199707 4.878932952880859 -0.3270738124847412
N 6.818774223327637 6.534672737121582 -0.3145449161529541
C 8.755006790161133 5.069133758544922 0.1694517433643341
O 8.197481155395508 2.5851452350616455 0.47613540291786194
H 4.147022724151611 -3.777827024459839 0.9108480215072632
H 7.291621685028076 -2.246657609939575 1.0965702533721924
H 2.141815662384033 0.2615380883216858 0.022563330829143524
H 2.9184553623199463 5.523102760314941 -0.6811140179634094
H 10.719717025756836 5.594855308532715 0.3516402244567871
