15
Generated by QM7 dataset
C 1.9067147970199585 -0.01738548092544079 -0.13789331912994385
C 4.71866512298584 -0.052742257714271545 -0.006311685312539339
C 6.3394455909729 -1.3950525522232056 -1.921265721321106
N 5.218592166900635 -2.7939789295196533 -4.026155948638916
C 6.247642517089844 1.4600780010223389 -1.8674273490905762
O 8.377911567687988 2.761664628982544 -0.8002800941467285
H 1.1604996919631958 1.4172190427780151 1.1523171663284302
H 1.142982006072998 -1.8519505262374878 0.4352417290210724
H 1.2037177085876465 0.4168357849121094 -2.034592628479004
H 5.3585638999938965 -0.09983423352241516 1.9414668083190918
H 8.048173904418945 -2.2781214714050293 -1.1943635940551758
H 3.7370657920837402 -1.845997929573059 -4.810467720031738
H 4.509944915771484 -4.479897975921631 -3.418363332748413
H 5.253816604614258 2.4145030975341797 -3.387220621109009
H 9.714836120605469 1.6077790260314941 -0.2961389720439911
