14
Generated by QM7 dataset
C -0.03845592588186264 1.6017696857452393 -0.09473197162151337
C -1.407297968864441 -0.8686504364013672 -0.281493604183197
C 1.4398767948150635 -0.841438353061676 -0.07453079521656036
C 2.850198268890381 -1.7444628477096558 2.2619266510009766
C 2.118326187133789 -4.046451568603516 3.778696298599243
O 4.105354309082031 -4.1383490562438965 1.9531264305114746
H 0.07309460639953613 2.77077317237854 -1.7729411125183105
H -0.2015959769487381 2.6569926738739014 1.6530568599700928
H -2.2237162590026855 -1.3873234987258911 -2.087183713912964
H -2.5053234100341797 -1.4751579761505127 1.336962342262268
H 2.448725938796997 -1.2490522861480713 -1.8264392614364624
H 3.925150156021118 -0.29991844296455383 3.2501211166381836
H 0.3734287917613983 -5.012083053588867 3.3251054286956787
H 2.6429898738861084 -4.109228610992432 5.75504732131958
