16
Generated by QM7 dataset
C 6.599490642547607 -2.346888780593872 -2.1972601413726807
N 6.133030414581299 -0.9573541283607483 0.13787442445755005
C 6.532310962677002 1.7766259908676147 -0.1838703602552414
C 9.328727722167969 2.4777333736419678 -0.09099031239748001
O 11.009336471557617 0.9834134578704834 0.5343578457832336
C 9.950995445251465 5.226529121398926 -0.6795833110809326
O 12.595005989074707 5.660372257232666 -0.8029068112373352
H 6.246395111083984 -4.358709812164307 -1.8737390041351318
H 8.551483154296875 -2.143705368041992 -2.847911834716797
H 5.3183698654174805 -1.7291183471679688 -3.6993279457092285
H 7.386845111846924 -1.589769959449768 1.4722667932510376
H 5.605116844177246 2.758319854736328 1.3840543031692505
H 5.697372913360596 2.4522030353546143 -1.95272958278656
H 9.158897399902344 6.420212268829346 0.8095586895942688
H 9.126602172851562 5.742311000823975 -2.5019028186798096
H 13.39539909362793 4.26063346862793 0.10491759330034256
