11
Generated by QM7 dataset
C 3.752107858657837 0.6160507202148438 -1.282046914100647
C 5.04872465133667 -0.008031335659325123 1.2766233682632446
C 6.366978645324707 2.4451355934143066 1.0192804336547852
N 7.240410327911377 4.327208518981934 2.402125358581543
S 6.82916784286499 6.8190765380859375 0.35031741857528687
N 5.051805019378662 5.380446910858154 -1.9647860527038574
C 5.2238264083862305 2.9946868419647217 -1.2601827383041382
H 1.7039093971252441 0.8935948014259338 -1.3427071571350098
H 4.242945194244385 -0.6385195851325989 -2.855187177658081
H 6.332018852233887 -1.6335548162460327 1.2443280220031738
H 3.8986940383911133 -0.17555555701255798 2.9867122173309326
