12
Generated by QM7 dataset
C 2.787043809890747 -0.8416651487350464 -0.6176570057868958
N 5.144609451293945 -0.46753713488578796 -0.11653941124677658
N 5.764004707336426 2.069136619567871 -0.3930630385875702
C 8.097003936767578 2.4516172409057617 0.23370243608951569
C 9.235280990600586 5.035194396972656 0.07275445759296417
C 10.136661529541016 5.811153411865234 2.5631110668182373
N 10.89100170135498 6.4307756423950195 4.530826091766357
H 1.992224931716919 -2.759321451187134 -0.48547065258026123
H 1.4863263368606567 0.68617844581604 -1.184820532798767
H 9.336645126342773 0.8950120806694031 0.8722975850105286
H 7.840832710266113 6.377353191375732 -0.6567743420600891
H 10.812219619750977 4.948474884033203 -1.2632819414138794
