18
Generated by QM7 dataset
N 2.061558961868286 -0.04539122059941292 -0.028232509270310402
C 4.8207292556762695 -0.030349001288414 0.059412989765405655
C 5.958986759185791 1.93150794506073 -1.8190504312515259
C 5.19245719909668 0.061775147914886475 -3.969388723373413
C 5.980907440185547 -1.8934110403060913 -1.9049572944641113
C 8.825247764587402 -1.4239842891693115 -1.6250511407852173
C 8.808958053588867 1.48190438747406 -1.5624444484710693
H 1.2556096315383911 1.4464153051376343 0.8855634331703186
H 1.275773048400879 -1.6275076866149902 0.7392797470092773
H 5.594552993774414 -0.07124267518520355 1.9764267206192017
H 5.246635437011719 3.8616364002227783 -1.8569960594177246
H 6.338235855102539 0.10652386397123337 -5.693329334259033
H 3.204824447631836 0.06364597380161285 -4.54762601852417
H 5.289815902709961 -3.827810287475586 -2.0284509658813477
H 9.584237098693848 -2.2309727668762207 0.12160387635231018
H 9.902316093444824 -2.156838893890381 -3.231356143951416
H 9.875444412231445 2.2951290607452393 -3.1372287273406982
H 9.562051773071289 2.2218265533447266 0.21635474264621735
