16
Generated by QM7 dataset
C 1.889726161956787 0.0 0.0
C 4.138802528381348 0.0 0.0
C 6.86756706237793 0.0 0.0
C 7.962455749511719 2.174243211746216 1.5276734828948975
C 10.59323787689209 1.2379406690597534 2.1639821529388428
C 10.292166709899902 -1.6101033687591553 2.3935837745666504
N 7.824751377105713 -2.233391761779785 1.3238476514816284
H -0.12322904169559479 -0.012755651026964188 0.016213851049542427
H 7.62067985534668 0.041120439767837524 -1.9308277368545532
H 6.890905380249023 2.5064761638641357 3.274139404296875
H 8.00487995147705 3.949981212615967 0.46661117672920227
H 11.89085578918457 1.6855412721633911 0.6116287708282471
H 11.329626083374023 2.1013944149017334 3.891758680343628
H 11.8200101852417 -2.596975088119507 1.4071656465530396
H 10.334609985351562 -2.1942176818847656 4.378117561340332
H 7.919672012329102 -3.7346091270446777 0.12770769000053406
