15
Generated by QM7 dataset
C 4.902327537536621 -1.9229285717010498 0.4849982261657715
O 4.493220806121826 0.5134952664375305 1.5502368211746216
C 5.468886375427246 2.5294928550720215 0.0
C 4.409468173980713 5.009323596954346 1.1020883321762085
O 4.9240593910217285 5.22976016998291 3.7497646808624268
C 8.197650909423828 2.5294928550720215 0.0
C 10.446727752685547 2.5294928550720215 0.0
H 3.872483491897583 -3.3027122020721436 1.6267518997192383
H 6.909178733825684 -2.416827440261841 0.5384774804115295
H 4.192432880401611 -2.012407064437866 -1.4538229703903198
H 4.738715171813965 2.3209049701690674 -1.9283710718154907
H 2.349836587905884 5.035099506378174 0.901909589767456
H 5.183518886566162 6.671413421630859 0.14469632506370544
H 4.755514621734619 3.515230655670166 4.418481826782227
H 12.460570335388184 2.538752555847168 0.02199641242623329
