16
Generated by QM7 dataset
C 1.7748308181762695 -0.276655912399292 0.2597995400428772
C 4.563594341278076 0.04756440594792366 -0.392760694026947
C 5.223731994628906 -1.4141576290130615 -2.827975273132324
O 7.874337673187256 -1.5775433778762817 -3.2781267166137695
N 5.154719352722168 2.738987922668457 -0.6213419437408447
C 7.572737216949463 3.639801502227783 -0.4276450276374817
O 9.431774139404297 2.324514389038086 -0.0404968298971653
H 1.3073502779006958 0.7395821213722229 2.0019757747650146
H 1.306311011314392 -2.2724902629852295 0.539611279964447
H 0.5599825382232666 0.4688221514225006 -1.2423059940338135
H 5.717989921569824 -0.6979703307151794 1.15964937210083
H 4.355422019958496 -0.518011748790741 -4.479765892028809
H 4.51890230178833 -3.356304883956909 -2.711379051208496
H 8.746786117553711 -0.431556761264801 -2.11112642288208
H 3.803640842437744 3.938775062561035 -1.249354600906372
H 7.6804704666137695 5.700850009918213 -0.7131637334823608
