16
Generated by QM7 dataset
C 1.651809573173523 0.06697189062833786 0.22971510887145996
C 4.435659885406494 -0.46417343616485596 -0.05778782442212105
C 5.0860466957092285 -3.2326977252960205 -0.07910393923521042
C 6.085333824157715 1.4558261632919312 -0.2666592597961426
N 8.640715599060059 1.1707230806350708 -0.5307862758636475
C 10.33608341217041 3.1123223304748535 -0.7436450123786926
O 12.614110946655273 2.7853052616119385 -0.9764214754104614
H 1.2343502044677734 2.0938544273376465 0.2429431974887848
H 0.9505133628845215 -0.7295098900794983 2.005887508392334
H 0.5961707830429077 -0.7809482216835022 -1.334808111190796
H 4.100081920623779 -4.180130958557129 -1.6326477527618408
H 4.495204925537109 -4.112421989440918 1.6984668970108032
H 7.102063179016113 -3.6088478565216064 -0.31242841482162476
H 5.410720348358154 3.400108575820923 -0.2294694483280182
H 9.428901672363281 -0.5705460906028748 -0.5817521810531616
H 9.473254203796387 5.007585048675537 -0.6874256730079651
