19
Generated by QM7 dataset
N 1.9650695323944092 0.02951752208173275 -0.24398253858089447
C 4.7045111656188965 0.02900729700922966 0.03422294184565544
C 5.633500576019287 2.1052870750427246 1.8014192581176758
C 8.345824241638184 1.2987710237503052 2.3216607570648193
C 8.244780540466309 -1.581644058227539 2.533895969390869
C 5.754858493804932 -2.399460792541504 1.2800816297531128
N 6.112734794616699 -4.479293346405029 -0.5050860047340393
H 1.422642469406128 -1.4036885499954224 -1.4056916236877441
H 1.390271544456482 1.6702911853790283 -1.0706431865692139
H 5.561822891235352 0.29816100001335144 -1.836530327796936
H 4.5493645668029785 2.1374881267547607 3.5684642791748047
H 5.53234338760376 3.9838829040527344 0.9420851469039917
H 9.555116653442383 1.8336957693099976 0.7246910929679871
H 9.121103286743164 2.184561252593994 4.020751476287842
H 9.92142105102539 -2.4314916133880615 1.6670596599578857
H 8.238147735595703 -2.157953977584839 4.524609088897705
H 4.461152076721191 -3.0496022701263428 2.766634702682495
H 7.3012590408325195 -3.9309895038604736 -1.917505145072937
H 4.428781032562256 -4.871865272521973 -1.3487164974212646
