16
Generated by QM7 dataset
N 1.994322419166565 0.06787896156311035 1.1470826864242554
C 4.571928024291992 0.00173854804597795 0.11563234031200409
C 5.119873046875 2.253422737121582 -1.637466549873352
O 7.658285140991211 2.239060878753662 -2.5986948013305664
C 8.468316078186035 -0.06755770742893219 -3.4424386024475098
C 7.334235191345215 -2.279085397720337 -2.9772446155548096
C 5.038727760314941 -2.470249891281128 -1.34145987033844
H 1.7630200386047363 1.662977933883667 2.2033638954162598
H 1.7447463274002075 -1.4169166088104248 2.349175214767456
H 5.909400463104248 0.07621265202760696 1.7001488208770752
H 4.877042770385742 4.031976222991943 -0.6050336360931396
H 3.8084027767181396 2.295336961746216 -3.2447731494903564
H 10.190876960754395 0.11795670539140701 -4.533037185668945
H 8.106849670410156 -4.010112285614014 -3.7696635723114014
H 3.416454792022705 -2.9379193782806396 -2.547048568725586
H 5.271769046783447 -4.027384281158447 0.0033637124579399824
