15
Generated by QM7 dataset
C 3.616992473602295 -1.2058531045913696 0.02469872124493122
C 5.743728160858154 0.07315129786729813 -1.411871075630188
O 7.791378498077393 0.4763810634613037 0.30222389101982117
C 9.925352096557617 1.595609188079834 -0.6373101472854614
C 10.39504337310791 2.3842108249664307 -2.9950270652770996
C 12.859321594238281 3.5444459915161133 -3.5786876678466797
O 13.360590934753418 4.282327175140381 -5.714475154876709
H 1.9940390586853027 -1.5433393716812134 -1.2086310386657715
H 3.012185573577881 -0.0396464541554451 1.6229157447814941
H 4.2511091232299805 -3.0143966674804688 0.8042674660682678
H 5.076201438903809 1.8864758014678955 -2.1589932441711426
H 6.348686218261719 -1.1490857601165771 -2.97131085395813
H 11.281098365783691 1.768235683441162 0.893481433391571
H 9.0813627243042 2.23378849029541 -4.552217960357666
H 14.21140193939209 3.7081339359283447 -2.0015411376953125
