20
Generated by QM7 dataset
C 2.6194815635681152 3.941779851913452 -0.8099744319915771
C 5.0932464599609375 3.334780693054199 0.5211297869682312
N 7.214067459106445 3.8594064712524414 -1.1674350500106812
C 9.703857421875 3.174588680267334 -0.10450185835361481
C 10.56623363494873 4.6447577476501465 2.1843154430389404
C 10.545390129089355 0.45763498544692993 -0.33366894721984863
C 11.706438064575195 2.432474374771118 -2.0018057823181152
H 1.022039532661438 3.5740389823913574 0.4529484510421753
H 2.3745920658111572 2.7762155532836914 -2.5034337043762207
H 2.5373353958129883 5.931736946105957 -1.3743221759796143
H 5.088862419128418 1.3412141799926758 1.0789580345153809
H 5.22664213180542 4.481523513793945 2.238191604614258
H 7.188385963439941 5.711243629455566 -1.699090600013733
H 12.557324409484863 4.286654949188232 2.6267571449279785
H 9.45622730255127 4.1167683601379395 3.848257303237915
H 10.346477508544922 6.67778205871582 1.8669360876083374
H 9.266839027404785 -0.8880767822265625 -1.2014689445495605
H 11.700390815734863 -0.3408876955509186 1.1565879583358765
H 13.652685165405273 2.965395927429199 -1.6472364664077759
H 11.209061622619629 2.4105913639068604 -3.9896087646484375
