16
Generated by QM7 dataset
C 2.161034107208252 0.25768306851387024 0.39342209696769714
C 4.618037223815918 -0.16247865557670593 -0.052761152386665344
C 5.768634796142578 -2.7558631896972656 -0.4308764636516571
N 8.184649467468262 -2.366485118865967 -1.7921029329299927
C 8.81292724609375 0.3431364595890045 -1.5467219352722168
C 7.468613624572754 2.2994377613067627 -3.097034454345703
C 6.570143222808838 1.7579365968704224 -0.460450679063797
H 1.4352091550827026 2.1687631607055664 0.5491921901702881
H 0.8300055265426636 -1.2887176275253296 0.580561637878418
H 4.539405822753906 -4.013740539550781 -1.515787124633789
H 6.156973361968994 -3.6044068336486816 1.4178048372268677
H 9.533308982849121 -3.4737133979797363 -0.9824308156967163
H 10.689179420471191 0.7990896105766296 -0.853532612323761
H 8.427289962768555 4.078388214111328 -3.42854905128479
H 6.326066017150879 1.6727666854858398 -4.678584098815918
H 6.925865173339844 3.1039507389068604 1.0377998352050781
