20
Generated by QM7 dataset
C 1.8371350765228271 -0.17487525939941406 0.0455424003303051
C 4.691396236419678 -0.30233728885650635 0.4016612768173218
C 5.961141109466553 2.278348207473755 0.017177609726786613
O 5.001292705535889 4.029444217681885 1.8470561504364014
C 8.880352020263672 2.1263575553894043 0.25851452350616455
C 10.127798080444336 4.596135139465332 -0.5837553143501282
N 9.648147583007812 1.5805102586746216 2.883230686187744
H 1.00843346118927 -2.058157444000244 0.2639002501964569
H 1.3564642667770386 0.5216777920722961 -1.8425018787384033
H 0.9593194723129272 1.0696039199829102 1.443127155303955
H 5.476161956787109 -1.6732958555221558 -0.9380033612251282
H 5.06151819229126 -1.0122884511947632 2.3121178150177
H 5.463613986968994 3.011467456817627 -1.8555598258972168
H 5.430241584777832 3.2920918464660645 3.480346441268921
H 9.569931983947754 0.5986652374267578 -0.9587336778640747
H 9.528377532958984 6.200040340423584 0.5796545743942261
H 9.641552925109863 5.021777153015137 -2.5502798557281494
H 12.190359115600586 4.459564685821533 -0.4663277268409729
H 9.465033531188965 3.1936750411987305 3.9279658794403076
H 11.539669036865234 1.1992957592010498 2.9038665294647217
