15
Generated by QM7 dataset
C 2.0029397010803223 -0.0041196029633283615 0.13679727911949158
N 4.752113342285156 0.04291567951440811 -0.05655950307846069
C 5.834113597869873 1.9351173639297485 1.7229578495025635
C 7.916988849639893 -0.033448152244091034 2.340123414993286
O 10.181315422058105 0.07403946667909622 0.8083114624023438
C 5.8879899978637695 -1.986952543258667 1.527144432067871
H 1.252378225326538 -1.6240495443344116 -0.9115660786628723
H 1.2079696655273438 1.7043440341949463 -0.7204580903053284
H 1.303986668586731 -0.12509986758232117 2.0844435691833496
H 4.659913539886475 2.439598560333252 3.3564560413360596
H 6.495234489440918 3.67185115814209 0.8163994550704956
H 8.434320449829102 -0.1257423758506775 4.340568542480469
H 9.521252632141113 0.14972300827503204 -0.9120007157325745
H 6.595276355743408 -3.6061453819274902 0.45319411158561707
H 4.7310051918029785 -2.683675765991211 3.101191759109497
