16
Generated by QM7 dataset
C 1.8567503690719604 -0.11442291736602783 -0.015193398110568523
C 4.751772880554199 -0.08284559100866318 -0.10665614157915115
N 5.591132640838623 -1.5325868129730225 -2.3331124782562256
C 5.7805399894714355 2.6796505451202393 -0.04450305178761482
O 4.813302516937256 3.982295513153076 2.1146035194396973
C 8.563406944274902 2.7702817916870117 0.048452578485012054
C 10.830984115600586 2.857870578765869 0.13290444016456604
H 1.154717206954956 0.7792285680770874 1.7139438390731812
H 1.1331931352615356 -2.0548503398895264 -0.035205598920583725
H 1.0407477617263794 0.8890783786773682 -1.6322131156921387
H 5.434512138366699 -1.0748761892318726 1.5823811292648315
H 4.944581985473633 -0.6893153786659241 -3.9407403469085693
H 4.803646087646484 -3.2902588844299316 -2.295336961746216
H 5.11006498336792 3.702861785888672 -1.716324806213379
H 5.77016544342041 3.3752965927124023 3.561774730682373
H 12.841898918151855 2.928659677505493 0.19335678219795227
