17
Generated by QM7 dataset
C 7.591766834259033 -1.7170618772506714 1.4270267486572266
C 7.017819404602051 0.8078957200050354 2.6874172687530518
C 6.3474955558776855 2.874103307723999 0.7679280042648315
C 5.38407564163208 5.2843546867370605 2.0307374000549316
O 7.128425121307373 6.147902488708496 3.886561870574951
C 8.643475532531738 3.568143129348755 -0.7812694907188416
O 8.676412582397461 3.4719183444976807 -3.100001335144043
H 7.9525346755981445 -3.1619086265563965 2.8625760078430176
H 9.26598834991455 -1.5924344062805176 0.21962396800518036
H 5.998444080352783 -2.3486649990081787 0.26930487155914307
H 8.655871391296387 1.3633428812026978 3.8280370235443115
H 5.428068161010742 0.5404049754142761 3.9907047748565674
H 4.887549877166748 2.181877851486206 -0.5308051705360413
H 3.5752861499786377 4.924267292022705 2.9696290493011475
H 5.114336013793945 6.7956061363220215 0.6421478390693665
H 6.398820400238037 7.6527862548828125 4.655907154083252
H 10.316184997558594 4.212747573852539 0.28708720207214355
