15
Generated by QM7 dataset
C 1.9308277368545532 0.6744810342788696 1.301926851272583
C 4.389947414398193 0.5144023299217224 0.7056993246078491
C 6.064943790435791 2.6149463653564453 -0.20363688468933105
O 4.751678466796875 4.980751037597656 -0.26246407628059387
C 6.399595260620117 6.702348232269287 0.9937691688537598
C 7.799693584442139 5.058437824249268 2.8402206897735596
O 8.199445724487305 2.779938220977783 1.4576213359832764
H 0.8937837481498718 -0.9719050526618958 1.9459455013275146
H 0.9066905975341797 2.4484236240386963 1.1574950218200684
H 5.319711208343506 -1.3084652423858643 0.8816139101982117
H 6.752936363220215 2.18526029586792 -2.1074225902557373
H 7.676502227783203 7.512511730194092 -0.42019951343536377
H 5.32728910446167 8.22025203704834 1.8944504261016846
H 9.596841812133789 5.866031169891357 3.4583311080932617
H 6.642179489135742 4.615901947021484 4.498436450958252
