11
Generated by QM7 dataset
C 1.889726161956787 0.0 0.0
C 4.138802528381348 0.0 0.0
C 6.86756706237793 0.0 0.0
C 7.7784528732299805 2.5722384452819824 0.0
C 8.529203414916992 4.692322254180908 0.0
C 9.496402740478516 7.419499397277832 0.0
C 10.2551851272583 9.558650970458984 0.0
H -0.12419280409812927 0.0111682815477252 0.0
H 7.581562519073486 -1.0100964307785034 -1.6601999998092651
H 7.581562519073486 -1.0100964307785034 1.6601999998092651
H 10.9256591796875 11.454442977905273 0.0
