20
Generated by QM7 dataset
C 4.3344268798828125 -0.9751553535461426 -2.657521963119507
C 4.615467071533203 0.06563019007444382 0.006803013850003481
C 6.170239448547363 2.4883534908294678 -0.023810548707842827
C 4.872772216796875 4.897943496704102 -1.0696417093276978
C 6.1483564376831055 6.2411041259765625 1.174200177192688
N 6.167574882507324 3.765033721923828 2.494873046875
C 8.571797370910645 3.376770496368408 3.787993907928467
H 3.252124071121216 -2.737117052078247 -2.6302530765533447
H 6.182919502258301 -1.3633806705474854 -3.5003209114074707
H 3.3484623432159424 0.3685910701751709 -3.8828580379486084
H 5.552639007568359 -1.3580706119537354 1.186275601387024
H 2.7357754707336426 0.3904930055141449 0.8153979182243347
H 8.058245658874512 2.1926491260528564 -0.8407769799232483
H 2.801783561706543 4.888797283172607 -0.9762892127037048
H 5.46818733215332 5.509420871734619 -2.949862480163574
H 8.005730628967285 7.040533542633057 0.7110850214958191
H 5.005884647369385 7.699443340301514 2.091076374053955
H 8.703662872314453 1.4232850074768066 4.45758056640625
H 8.680154800415039 4.604450225830078 5.4512553215026855
H 10.228728294372559 3.7590243816375732 2.6040236949920654
