13
Generated by QM7 dataset
O 1.9912233352661133 0.12133931368589401 -0.3640557527542114
C 4.644644260406494 -0.04244324937462807 -0.043482597917318344
C 5.403671741485596 -2.50048565864563 1.2518112659454346
C 6.39534330368042 -1.5821164846420288 3.7450780868530273
O 7.182528018951416 -2.9358596801757812 5.440086841583252
C 6.394228458404541 1.186540126800537 3.9142463207244873
C 5.404635429382324 1.9999160766601562 1.7411748170852661
H 1.4766130447387695 -1.254797101020813 -1.4674100875854492
H 5.560216903686523 0.17491304874420166 -1.885115146636963
H 6.943477630615234 -3.4359567165374756 0.2362157702445984
H 3.817265748977661 -3.793077230453491 1.5354591608047485
H 7.054101943969727 2.2445032596588135 5.517376899719238
H 5.116055488586426 3.9759082794189453 1.3024559020996094
