16
Generated by QM7 dataset
C 1.4374958276748657 -0.09711302816867828 0.1474553346633911
C 4.247442722320557 -0.09894605726003647 0.4352228343486786
C 5.745221138000488 1.7961846590042114 -0.33948931097984314
C 8.568377494812012 1.8162347078323364 -0.06719866394996643
C 9.77551555633545 1.9575483798980713 -2.6683123111724854
N 10.543915748596191 -0.3009388744831085 -3.653691053390503
O 10.025299072265625 3.9253957271575928 -3.8673245906829834
H 0.8438194394111633 -1.7362236976623535 -0.9651398062705994
H 0.7482559680938721 1.6077978610992432 -0.799694299697876
H 0.5394601225852966 -0.21202726662158966 2.0064544677734375
H 5.063370227813721 -1.7562925815582275 1.3363953828811646
H 4.918182373046875 3.4578776359558105 -1.2312511205673218
H 9.259941101074219 0.14233417809009552 0.9372285604476929
H 9.169480323791504 3.4712002277374268 1.0209623575210571
H 9.867488861083984 -1.9515202045440674 -2.9703660011291504
H 11.167393684387207 -0.2691914737224579 -5.460628032684326
