10
Generated by QM7 dataset
O 1.9031621217727661 0.4064801037311554 -0.4384731650352478
N 4.479709148406982 0.5605683326721191 -1.0238536596298218
C 5.652548789978027 1.553600549697876 0.8742061853408813
C 8.452499389648438 1.9573594331741333 0.7762994766235352
O 9.845057487487793 0.3229163885116577 1.6344430446624756
C 9.490771293640137 4.290415287017822 -0.19617247581481934
C 10.37195110321045 6.232845783233643 -0.9753821492195129
H 1.2117868661880493 -0.48448798060417175 -1.8994393348693848
H 4.735162258148193 2.1816320419311523 2.6342215538024902
H 11.174650192260742 7.948660373687744 -1.6600676774978638
