13
Generated by QM7 dataset
C 3.5902528762817383 -0.6383494734764099 -1.2564033269882202
N 4.964896202087402 1.3602060079574585 -1.515182375907898
N 5.484268665313721 2.4287705421447754 0.74415522813797
C 7.965327739715576 3.6213388442993164 0.5111331343650818
C 5.603227138519287 5.182328224182129 0.3583487570285797
C 4.968278884887695 6.7906365394592285 2.446042537689209
C 4.434204578399658 8.143170356750488 4.188407897949219
H 3.015228033065796 -1.7134146690368652 -2.942889451980591
H 2.932307004928589 -1.3651947975158691 0.5871568322181702
H 9.040223121643066 3.3087403774261475 -1.2027350664138794
H 9.076468467712402 3.6667301654815674 2.227722644805908
H 5.0577006340026855 5.879958629608154 -1.4929780960083008
H 3.954894542694092 9.335020065307617 5.737832069396973
