16
Generated by QM7 dataset
C 1.5539406538009644 0.24921707808971405 -1.0905609130859375
C 4.149744033813477 -0.13590911030769348 -0.01345484983175993
C 5.966564655303955 -1.7855644226074219 -1.4962852001190186
O 6.101377487182617 0.9139849543571472 -1.59598708152771
C 4.550668239593506 0.32017630338668823 2.820302963256836
C 2.4988603591918945 0.9602265357971191 4.6973676681518555
N 3.5703539848327637 -1.5693230628967285 4.6042609214782715
H 1.5252546072006226 0.014909938909113407 -3.147036552429199
H 0.8671008348464966 2.1551003456115723 -0.6683961153030396
H 0.2286001741886139 -1.1224027872085571 -0.28449827432632446
H 5.283334255218506 -2.7694125175476074 -3.1554646492004395
H 7.431858062744141 -2.77827525138855 -0.4687465727329254
H 6.422914505004883 1.0399730205535889 3.2946808338165283
H 0.5688642859458923 1.142207145690918 4.051743030548096
H 2.987619161605835 2.1131105422973633 6.315200328826904
H 4.8286662101745605 -1.8476985692977905 6.041738033294678
