15
Generated by QM7 dataset
O 3.6920523643493652 -2.4662816524505615 -0.38735607266426086
C 3.9393608570098877 0.15966296195983887 -0.9188037514686584
C 5.513276100158691 1.431580901145935 1.1345160007476807
C 8.232497215270996 0.6334928870201111 1.0155577659606934
C 10.18140983581543 2.245126962661743 -0.2966681122779846
N 10.096088409423828 2.085785150527954 2.454678773880005
H 2.5559113025665283 -3.168087959289551 -1.6506001949310303
H 2.0419058799743652 0.9825819730758667 -0.9605666995048523
H 4.80948543548584 0.3770192563533783 -2.7826595306396484
H 4.762846946716309 0.9228666424751282 2.9976913928985596
H 5.3532538414001465 3.4877541065216064 0.9291972517967224
H 8.470168113708496 -1.4012696743011475 1.0361746549606323
H 9.61789321899414 4.043692588806152 -1.0939435958862305
H 11.76021957397461 1.3263798952102661 -1.2185331583023071
H 11.476118087768555 0.9163092970848083 3.1319186687469482
