15
Generated by QM7 dataset
C 1.8053120374679565 -0.012264322489500046 0.19186389446258545
C 4.6197190284729 -0.4362432658672333 0.18088458478450775
C 5.597406387329102 -2.7485311031341553 0.5792199373245239
C 6.272473335266113 1.830993413925171 -0.3338012099266052
O 5.5398077964782715 2.9272425174713135 -2.670504331588745
C 6.070008277893066 3.7071890830993652 1.8506088256835938
O 5.237054824829102 5.8615336418151855 1.5829291343688965
H 1.2767179012298584 1.3177627325057983 1.6850121021270752
H 0.7611628174781799 -1.7675175666809082 0.5266477465629578
H 1.171573519706726 0.7480858564376831 -1.6237850189208984
H 4.394388198852539 -4.3779096603393555 0.9181423187255859
H 7.620396137237549 -3.09365177154541 0.5342633724212646
H 8.26800537109375 1.3029661178588867 -0.49372875690460205
H 4.994602680206299 4.649028778076172 -2.2775356769561768
H 6.7724385261535645 3.034503221511841 3.6943578720092773
