21
Generated by QM7 dataset
C 1.829179286956787 -0.035300083458423615 -0.16724076867103577
C 4.693720817565918 0.07231982052326202 0.02698528952896595
C 5.661222457885742 2.7929208278656006 -0.0792173221707344
C 8.54794979095459 2.888843297958374 0.12555339932441711
C 9.555249214172363 5.602546691894531 0.05402727052569389
C 12.411890983581543 5.677247524261475 0.39319533109664917
O 8.935059547424316 6.758171081542969 -2.298454999923706
H 1.1797560453414917 -1.9976105690002441 -0.0943918228149414
H 1.175163984298706 0.7916818857192993 -1.946814775466919
H 0.9416694045066833 0.9931266903877258 1.3925580978393555
H 5.521174907684326 -1.0288424491882324 -1.520530343055725
H 5.288568496704102 -0.8186482787132263 1.8000963926315308
H 4.821636199951172 3.8884894847869873 1.4669376611709595
H 5.0481767654418945 3.670339584350586 -1.8532922267913818
H 9.358755111694336 1.8047640323638916 -1.445186972618103
H 9.144536018371582 1.9742913246154785 1.8868916034698486
H 8.665660858154297 6.72523307800293 1.5487627983093262
H 13.367337226867676 4.623819828033447 -1.111177921295166
H 12.97219467163086 4.881257057189941 2.2171778678894043
H 13.099864959716797 7.626235485076904 0.2831565737724304
H 9.704726219177246 5.761151313781738 -3.6370046138763428
