18
Generated by QM7 dataset
C 2.9477081298828125 -0.9274775981903076 -1.2001272439956665
C 5.504677772521973 -0.9301987886428833 0.1062404066324234
C 6.932290077209473 1.5292798280715942 -0.3593881130218506
C 9.464240074157715 1.4716053009033203 0.9774230718612671
C 9.54576301574707 2.235583782196045 3.7254250049591064
N 11.418216705322266 0.6767865419387817 -0.2831376791000366
O 13.591590881347656 0.6649190187454224 1.2208764553070068
H 1.97255277633667 -2.7221314907073975 -0.8711826205253601
H 3.1572787761688232 -0.6768810153007507 -3.2436015605926514
H 1.748487949371338 0.5962274670600891 -0.4781385064125061
H 6.622961044311523 -2.5329132080078125 -0.58216792345047
H 5.236204147338867 -1.2251662015914917 2.138773202896118
H 5.846283435821533 3.154973268508911 0.32335102558135986
H 7.251767158508301 1.8033467531204224 -2.388576030731201
H 7.710574150085449 2.9609739780426025 4.335201740264893
H 10.959806442260742 3.71726131439209 3.997828960418701
H 10.028606414794922 0.593808650970459 4.8824663162231445
H 14.86997127532959 0.02277120016515255 0.059072837233543396
