18
Generated by QM7 dataset
C 2.0684752464294434 0.17001865804195404 -0.4866800606250763
C 4.843254566192627 -0.36562421917915344 -0.1146685853600502
C 5.540450096130371 -3.116328477859497 -0.26788756251335144
O 4.465479373931885 -4.418746471405029 1.8169528245925903
C 6.4788126945495605 1.5521643161773682 0.26956942677497864
C 9.270845413208008 1.4314864873886108 0.679904580116272
N 10.535090446472168 2.8194901943206787 -1.326304316520691
H 1.6478222608566284 2.195823907852173 -0.45408228039741516
H 0.9511747360229492 -0.7231981754302979 1.0081311464309692
H 1.434358835220337 -0.5677493214607239 -2.3136672973632812
H 7.575307369232178 -3.4571783542633057 -0.24931156635284424
H 4.804628849029541 -3.9529290199279785 -2.0126149654388428
H 4.809976577758789 -3.404625177383423 3.309741973876953
H 5.7313127517700195 3.4727120399475098 0.31930702924728394
H 10.003321647644043 -0.49610981345176697 0.7556636929512024
H 9.713324546813965 2.317786931991577 2.4996731281280518
H 10.210493087768555 1.927539587020874 -3.0025291442871094
H 12.437270164489746 2.745431900024414 -1.0440925359725952
