10
Generated by QM7 dataset
N 1.8791815042495728 0.13717521727085114 -0.3532842993736267
C 4.062986850738525 0.05843033269047737 -0.18923717737197876
C 6.767808437347412 -0.03898505121469498 0.010828130878508091
C 8.266777038574219 -1.4228315353393555 -1.9813967943191528
C 8.359884262084961 1.4103970527648926 -1.8587535619735718
H 7.478024482727051 -0.14552780985832214 1.933019757270813
H 7.26892614364624 -2.2811074256896973 -3.5536301136016846
H 9.922895431518555 -2.4667351245880127 -1.3801047801971436
H 10.079137802124023 2.2880804538726807 -1.1746348142623901
H 7.4249420166015625 2.4646754264831543 -3.3482167720794678
