18
Generated by QM7 dataset
C 4.0691094398498535 -0.9322586059570312 -2.701779365539551
N 4.257571697235107 0.06272000819444656 -0.1373452991247177
C 6.020440578460693 2.215496063232422 -0.10856476426124573
C 4.663465976715088 4.688713073730469 -0.805873692035675
O 5.551353931427002 5.881678104400635 1.5091919898986816
C 6.1071600914001465 3.392946481704712 2.5628843307495117
C 8.650391578674316 3.3874096870422363 3.8765463829040527
H 2.7217159271240234 -2.5007500648498535 -2.7320337295532227
H 5.8926005363464355 -1.6457058191299438 -3.370628833770752
H 3.3799452781677246 0.5019868612289429 -4.024303913116455
H 4.784295082092285 -1.3708828687667847 1.0394628047943115
H 7.861600875854492 1.918071985244751 -1.0034635066986084
H 2.5948774814605713 4.664562225341797 -0.8714472055435181
H 5.402065753936768 5.6431756019592285 -2.483194589614868
H 4.5807719230651855 2.8223438262939453 3.8488240242004395
H 10.145561218261719 4.119017124176025 2.647392988204956
H 9.169726371765137 1.4661439657211304 4.444125652313232
H 8.594039916992188 4.559247970581055 5.580379962921143
