15
Generated by QM7 dataset
C 1.8604353666305542 -0.03378830477595329 0.01619495265185833
C 4.721858501434326 -0.0370764285326004 -0.029385240748524666
C 5.862497329711914 1.982587218284607 1.6735225915908813
O 8.323808670043945 1.1151652336120605 2.440316677093506
N 8.241643905639648 -1.520473599433899 2.19321608543396
C 5.994456768035889 -2.251079559326172 1.1724050045013428
N 5.1136932373046875 -4.5194878578186035 1.2513010501861572
H 1.1050550937652588 -1.4782949686050415 -1.2571214437484741
H 1.1189634799957275 1.7988680601119995 -0.5913141965866089
H 1.1291491985321045 -0.43484488129615784 1.9101163148880005
H 5.439444541931152 0.14135152101516724 -1.964634895324707
H 4.742721080780029 2.2985684871673584 3.388411283493042
H 6.0639801025390625 3.7879183292388916 0.6844210028648376
H 8.866254806518555 -2.5454421043395996 3.6914098262786865
H 3.41418719291687 -4.642017841339111 0.3347649872303009
