17
Generated by QM7 dataset
C 3.3094961643218994 -1.6207613945007324 -2.085350513458252
C 6.032742977142334 -1.9872360229492188 -1.4068255424499512
C 7.275180816650391 -4.157321929931641 -1.8321083784103394
O 7.080615043640137 0.03839923441410065 -0.11937399953603745
C 9.45091724395752 0.9941282272338867 -0.740375816822052
C 10.285892486572266 0.9522330164909363 -3.4507155418395996
C 10.805094718933105 2.125545024871826 1.075991153717041
H 3.0926501750946045 0.028383687138557434 -3.3137669563293457
H 2.18416428565979 -1.311432123184204 -0.37563976645469666
H 2.526318073272705 -3.2599854469299316 -3.076133966445923
H 6.374405384063721 -5.738134384155273 -2.775705337524414
H 9.213190078735352 -4.407445907592773 -1.2153207063674927
H 8.739265441894531 1.5143886804580688 -4.704360008239746
H 10.944178581237793 -0.9291594624519348 -4.000399112701416
H 11.848506927490234 2.26999568939209 -3.7818522453308105
H 10.098847389221191 2.2097322940826416 2.9984662532806396
H 12.6209135055542 2.987638235092163 0.6898256540298462
