10
Generated by QM7 dataset
O 4.8237714767456055 -2.269598960876465 0.12188733369112015
C 4.003781795501709 -0.10091137886047363 -0.00013228082389105111
C 5.483683109283447 2.1819722652435303 0.00636837724596262
C 4.665318012237549 4.65358304977417 -0.12600694596767426
N 6.541665077209473 6.469364166259766 -0.08054012805223465
C 8.755157470703125 5.349984645843506 0.08556679636240005
S 8.71231746673584 2.1111831665039062 0.1947929710149765
H 1.943243145942688 0.1991015523672104 -0.12918168306350708
H 2.7129852771759033 5.257501602172852 -0.25928932428359985
H 10.510656356811523 6.398329257965088 0.15053558349609375
