19
Generated by QM7 dataset
C 5.442637920379639 -1.424399971961975 2.611790418624878
N 4.914478302001953 -0.2528642416000366 0.1721162497997284
C 5.720163345336914 2.419548749923706 0.10811123251914978
C 8.64345645904541 2.8106842041015625 0.047621097415685654
N 9.793581008911133 1.107606291770935 -1.8243416547775269
C 9.29875659942627 5.555322170257568 -0.3702540397644043
C 10.782096862792969 6.531895160675049 -2.1781740188598633
H 4.687579154968262 -3.350956916809082 2.6211256980895996
H 4.548173904418945 -0.38830092549324036 4.164351463317871
H 7.474377155303955 -1.5664317607879639 2.970914125442505
H 3.0104281902313232 -0.31325989961624146 -0.12929506599903107
H 4.8858489990234375 3.4619972705841064 1.694593071937561
H 4.913722515106201 3.2441306114196777 -1.6172276735305786
H 9.41111946105957 2.2853779792785645 1.900327444076538
H 9.055208206176758 1.5580792427062988 -3.5463168621063232
H 9.024632453918457 -0.6368377208709717 -1.4740619659423828
H 8.486288070678711 6.859592437744141 0.9972273707389832
H 11.707060813903809 5.351647853851318 -3.576817035675049
H 11.137743949890137 8.550216674804688 -2.268465042114258
