17
Generated by QM7 dataset
C 1.9773149490356445 0.1483057141304016 -0.17517761886119843
C 4.789340972900391 -0.006803013850003481 -0.12130151689052582
C 6.207164764404297 -1.3245468139648438 -2.2131717205047607
C 6.410140037536621 1.5037306547164917 -1.916352391242981
O 5.126335620880127 3.0100502967834473 -3.78810715675354
C 8.829915046691895 2.6736035346984863 -0.9935802221298218
O 10.304261207580566 3.418004274368286 -3.117802381515503
H 1.3421969413757324 1.8613802194595337 0.7927401065826416
H 1.1625972986221313 -1.4814130067825317 0.8036627173423767
H 1.2202906608581543 0.1719650775194168 -2.099334478378296
H 5.476407527923584 -0.25842005014419556 1.7943516969680786
H 5.153226375579834 -2.080134868621826 -3.796799898147583
H 7.829059600830078 -2.46834135055542 -1.69929838180542
H 4.108434677124023 1.9789211750030518 -4.919448375701904
H 9.947858810424805 1.365535020828247 0.1526520699262619
H 8.426515579223633 4.356725692749023 0.13870589435100555
H 9.10010814666748 4.227827548980713 -4.257099628448486
