17
Generated by QM7 dataset
C 3.4842770099639893 0.9835835695266724 2.5714070796966553
C 4.273313522338867 -0.0682758018374443 0.04093146696686745
C 5.907926559448242 -2.4220430850982666 0.050550173968076706
C 4.242000579833984 -4.7647175788879395 -0.11293003708124161
N 5.7714691162109375 -7.06292724609375 0.008465972729027271
N 3.4456698894500732 1.0560734272003174 -1.9826817512512207
O 4.270932197570801 -0.15051668882369995 -4.180357456207275
H 2.352841377258301 2.6956565380096436 2.3319408893585205
H 5.167210578918457 1.4384406805038452 3.680184841156006
H 2.3651812076568604 -0.4283442199230194 3.581786870956421
H 7.015135765075684 -2.441904067993164 1.8019294738769531
H 7.260592460632324 -2.3526902198791504 -1.5127068758010864
H 3.146280527114868 -4.761373043060303 -1.8704698085784912
H 2.881964683532715 -4.786600589752197 1.448229432106018
H 6.965511798858643 -7.110774993896484 -1.5043920278549194
H 4.621041774749756 -8.596137046813965 -0.18196173012256622
H 3.5790090560913086 0.9285358190536499 -5.50581169128418
