13
Generated by QM7 dataset
C -1.901404619216919 0.000869274022988975 -2.4487826824188232
C -1.0478342771530151 1.8511756658554077 -0.24812103807926178
O -2.5795328617095947 0.00034015069832094014 1.3843566179275513
C -1.0471539497375488 -1.8511000871658325 -0.24855567514896393
C 1.7372063398361206 -1.4725501537322998 0.41095873713493347
O 3.2725331783294678 0.0007747877389192581 -1.2297770977020264
C 1.739417314529419 1.4720211029052734 0.41105324029922485
H -3.9147756099700928 0.0008881712565198541 -2.916036367416382
H -0.7526968121528625 0.0008314794977195561 -4.162121772766113
H -1.843503475189209 3.7526559829711914 -0.23292765021324158
H -1.843862533569336 -3.75174880027771 -0.23404258489608765
H 2.391977548599243 -2.4137661457061768 2.0964431762695312
H 2.3921287059783936 2.413425922393799 2.09708571434021
