18
Generated by QM7 dataset
C 1.794672966003418 0.010431287810206413 0.030575769022107124
C 4.667283535003662 0.01738548092544079 0.030500179156661034
C 5.720938205718994 2.707637310028076 0.0
C 8.449702262878418 2.707637310028076 0.0
C 10.698779106140137 2.707637310028076 0.0
C 13.427543640136719 2.707637310028076 0.0
N 14.374353408813477 5.290401458740234 0.03435521945357323
H 1.0833611488342285 -1.9314513206481934 0.052591077983379364
H 1.049818515777588 0.9473764300346375 -1.6573842763900757
H 1.049818515777588 0.9853788018226624 1.6968984603881836
H 5.3498334884643555 -1.0312424898147583 -1.6214605569839478
H 5.3498334884643555 -0.9935235381126404 1.7057991027832031
H 5.018678188323975 3.744964838027954 1.6504112482070923
H 5.0186967849731445 3.7072837352752686 -1.6735225915908813
H 14.148738861083984 1.7365827560424805 -1.679305076599121
H 14.153519630432129 1.6997519731521606 1.654304027557373
H 13.678423881530762 6.223624229431152 -1.4981181621551514
H 16.286056518554688 5.260128498077393 -0.1661447286605835
