17
Generated by QM7 dataset
C 8.771920204162598 1.9684898853302002 -3.641218900680542
C 11.075345039367676 3.01749587059021 -2.2921810150146484
O 10.995616912841797 5.706991672515869 -2.475938081741333
C 12.832676887512207 7.078101634979248 -1.225317358970642
C 14.78742790222168 6.111959934234619 0.0716962069272995
C 12.418486595153809 9.899349212646484 -1.3979249000549316
O 9.80140495300293 10.4580659866333 -1.1002174615859985
H 8.751340866088867 -0.09749097377061844 -3.569409132003784
H 8.746352195739746 2.570537805557251 -5.621349334716797
H 7.033919811248779 2.6827497482299805 -2.773003101348877
H 12.791972160339355 2.295828342437744 -3.1978135108947754
H 11.019919395446777 2.427466630935669 -0.3079308867454529
H 15.141260147094727 4.103389263153076 0.24330224096775055
H 16.13166618347168 7.344023704528809 1.01638925075531
H 13.017794609069824 10.589458465576172 -3.2542407512664795
H 13.45921516418457 10.936034202575684 0.058732688426971436
H 8.915803909301758 9.039655685424805 -1.878727912902832
