13
Generated by QM7 dataset
C 1.8029688596725464 0.03509221598505974 -0.002626719418913126
C 4.596248626708984 0.06423179060220718 -0.0033637124579399824
C 6.195788383483887 2.1238632202148438 -0.08486760407686234
N 8.57516098022461 1.1565501689910889 -0.09573352336883545
O 10.790619850158691 2.5090081691741943 -0.3009199798107147
N 8.687297821044922 -1.349245548248291 0.01872718520462513
C 6.256410598754883 -2.0348570346832275 0.04680851474404335
H 1.0318660736083984 1.9552996158599854 0.01940748654305935
H 1.086573600769043 -0.9623052477836609 1.661296010017395
H 1.0924128293991089 -0.9206178784370422 -1.6938749551773071
H 5.843051910400391 4.129750728607178 -0.15985193848609924
H 10.285798072814941 4.043692588806152 0.5512142181396484
H 5.790480136871338 -4.027441024780273 0.09371151775121689
