18
Generated by QM7 dataset
C 2.0048105716705322 -1.1983509063720703 0.4206530451774597
C 4.865270137786865 -0.9213737845420837 0.46277502179145813
N 5.559838771820068 1.6939693689346313 -0.09252098947763443
C 8.309371948242188 2.027430534362793 0.015174500644207
C 8.935342788696289 4.769744396209717 -0.5885363221168518
C 9.155628204345703 5.465673923492432 -3.3402233123779297
O 9.134841918945312 6.372723579406738 1.090334177017212
H 1.4747989177703857 -3.1652724742889404 0.7802112102508545
H 1.2261676788330078 -0.654922366142273 -1.4182583093643188
H 1.1167714595794678 -0.023319220170378685 1.8744760751724243
H 5.684674263000488 -2.1907594203948975 -0.9538392424583435
H 5.574465274810791 -1.4879893064498901 2.324892282485962
H 4.753454685211182 2.8628406524658203 1.220574140548706
H 9.279027938842773 0.8113917112350464 -1.3505116701126099
H 9.050521850585938 1.5969319343566895 1.9004219770431519
H 10.545975685119629 4.244192600250244 -4.256834983825684
H 9.789556503295898 7.424998760223389 -3.51188588142395
H 7.317265033721924 5.267082691192627 -4.25846004486084
