17
Generated by QM7 dataset
C 2.157708168029785 0.43316301703453064 0.16261093318462372
C 4.975837707519531 -0.09306900948286057 -0.09034780412912369
C 5.544532299041748 -1.4374958276748657 -2.4614059925079346
C 6.004169940948486 -2.5473129749298096 -4.385601043701172
C 6.471253871917725 2.319279670715332 -0.2875785231590271
C 7.248138904571533 3.7113842964172363 2.0791144371032715
C 9.213586807250977 2.4072086811065674 0.49871763586997986
H 1.762717604637146 1.4899356365203857 1.898003101348877
H 1.076954960823059 -1.3316333293914795 0.22363018989562988
H 1.44195556640625 1.5540162324905396 -1.4261763095855713
H 5.607573509216309 -1.2240512371063232 1.5267664194107056
H 6.416584014892578 -3.5300650596618652 -6.09553861618042
H 5.909267902374268 3.472371816635132 -1.8913135528564453
H 6.79188346862793 2.894833564758301 3.9018120765686035
H 7.195075511932373 5.759488582611084 2.045175075531006
H 10.485013008117676 3.567425012588501 -0.6127436757087708
H 10.075943946838379 0.7045276761054993 1.2436665296554565
