19
Generated by QM7 dataset
C 1.6649432182312012 -0.1898229867219925 -0.03775672987103462
C 4.531355381011963 -0.15892596542835236 0.168563574552536
C 5.586521625518799 2.5064570903778076 -0.19286544620990753
C 8.420090675354004 2.527111768722534 -0.012717857025563717
C 9.706710815429688 3.8015809059143066 1.7605066299438477
C 12.430354118347168 3.8087053298950195 1.8909544944763184
C 13.720072746276855 5.073498725891113 3.6585476398468018
H 0.9483968615531921 -2.1113343238830566 0.2295072376728058
H 1.0490436553955078 0.4723937511444092 -1.8980598449707031
H 0.8051178455352783 1.0219260454177856 1.4013452529907227
H 5.325796127319336 -1.4394233226776123 -1.254797101020813
H 5.085026264190674 -0.8955034017562866 2.0253517627716064
H 4.752037525177002 3.7821924686431885 1.211692452430725
H 5.043716907501221 3.230297803878784 -2.0572314262390137
H 9.428354263305664 1.4450736045837402 -1.4413508176803589
H 8.688072204589844 4.887020587921143 3.1794075965881348
H 13.464960098266602 2.7308053970336914 0.47762829065322876
H 12.785811424255371 6.178421974182129 5.112918853759766
H 15.770652770996094 5.02593469619751 3.68432354927063
