19
Generated by QM7 dataset
C 1.763624668121338 1.1186423301696777 2.215118169784546
O 4.438343048095703 1.3020968437194824 2.073936700820923
C 5.218554496765137 2.808321952819824 -0.021353906020522118
C 8.044658660888672 2.9057562351226807 0.02175074815750122
C 9.569875717163086 4.947416305541992 0.0522698238492012
C 8.701868057250977 7.652011394500732 0.048206914216279984
C 12.399418830871582 4.632077693939209 0.11372371762990952
H 1.277303695678711 -0.05306350812315941 3.845517158508301
H 1.0079420804977417 0.2252175658941269 0.5102260708808899
H 0.9209769368171692 2.988828659057617 2.4730846881866455
H 4.343252182006836 4.673935413360596 0.1121363490819931
H 4.600008964538574 1.9083399772644043 -1.7804811000823975
H 8.912421226501465 1.0401430130004883 0.04098815843462944
H 6.652761936187744 7.8639817237854 -0.04285898804664612
H 9.493606567382812 8.648293495178223 -1.5845353603363037
H 9.348550796508789 8.606077194213867 1.76764976978302
H 12.970966339111328 2.64327335357666 0.12039445340633392
H 13.181255340576172 5.515543460845947 1.8134379386901855
H 13.254898071289062 5.524803161621094 -1.5453234910964966
