18
Generated by QM7 dataset
C 1.8939402103424072 -0.0531013049185276 0.0370953232049942
N 4.645381450653076 -0.00808802805840969 0.05996100977063179
C 5.599730968475342 2.585995674133301 -0.01551465131342411
C 8.492466926574707 2.5753564834594727 -0.021297212690114975
C 9.52614688873291 5.272222518920898 -0.01972874067723751
N 12.282710075378418 5.2555742263793945 -0.06532783061265945
H 1.235106110572815 -2.0124638080596924 0.114744171500206
H 1.133854627609253 0.806402862071991 -1.6851822137832642
H 1.1159210205078125 0.9292917251586914 1.6840105056762695
H 5.312908172607422 -0.9843583703041077 -1.4620622396469116
H 4.921734809875488 3.6312599182128906 1.6402634382247925
H 4.910226821899414 3.554971694946289 -1.7129989862442017
H 9.186203956604004 1.5601201057434082 -1.692306399345398
H 9.191948890686035 1.557606816291809 1.6461970806121826
H 8.876837730407715 6.284435272216797 1.665472388267517
H 8.834772109985352 6.30061149597168 -1.677415370941162
H 12.949914932250977 4.319309234619141 1.4813374280929565
H 12.9371976852417 7.061434268951416 0.07445520907640457
