13
Generated by QM7 dataset
C 1.7850542068481445 0.0353945717215538 -0.01171630248427391
C 4.574422359466553 0.07999210804700851 -0.004648726433515549
C 6.220487117767334 2.000105142593384 0.00381724676117301
C 8.773204803466797 1.0800352096557617 0.009221863932907581
C 8.821751594543457 -1.4424279928207397 0.004856596235185862
C 6.153345108032227 -2.2191054821014404 -0.004044014029204845
O 5.3967366218566895 -4.388246536254883 -0.009732089936733246
H 1.0046350955963135 1.9499516487121582 -0.0006991986883804202
H 1.07069993019104 -0.9541983008384705 1.6573086977005005
H 1.0791281461715698 -0.9317861795425415 -1.697389841079712
H 5.73520565032959 3.982994556427002 0.006387274246662855
H 10.413846015930176 2.295450448989868 0.01594928838312626
H 10.397783279418945 -2.721224546432495 0.0071053700521588326
