13
Generated by QM7 dataset
C 1.9790157079696655 -0.024982178583741188 -0.21523980796337128
C 4.816231727600098 -0.013719411566853523 0.16514316201210022
N 5.937765121459961 -2.371455192565918 -0.9116605520248413
C 7.544580459594727 -1.5808125734329224 -2.5642638206481934
N 7.7561354637146 0.9209769368171692 -2.8728749752044678
C 6.090076923370361 2.082383632659912 -1.3152682781219482
O 5.707860946655273 4.350414276123047 -1.1811355352401733
H 1.128034234046936 1.6990338563919067 0.5494756698608398
H 1.1178486347198486 -1.6521497964859009 0.7289807796478271
H 1.4854003190994263 -0.12833130359649658 -2.223886489868164
H 5.3278937339782715 0.14016099274158478 2.163660764694214
H 8.74463176727295 -2.7993457317352295 -3.741525411605835
H 8.866235733032227 1.8522906303405762 -4.105505466461182
