15
Generated by QM7 dataset
C 2.803692102432251 -0.7681925892829895 -2.1021690368652344
C 3.934995651245117 0.23126468062400818 -0.06587585061788559
C 6.110731601715088 2.068739891052246 0.0139083843678236
C 5.304574489593506 4.60053825378418 1.0450563430786133
C 5.82853889465332 6.431966304779053 -0.6314519643783569
C 6.991098403930664 5.330501556396484 -2.8337767124176025
C 7.179844379425049 2.823288679122925 -2.518249034881592
H 1.2417768239974976 -2.0817410945892334 -1.8886679410934448
H 3.3724429607391357 -0.2969326674938202 -4.01483678817749
H 3.227879047393799 -0.33784523606300354 1.781785011291504
H 7.6217570304870605 1.2777005434036255 1.1901873350143433
H 4.446072101593018 4.8858113288879395 2.8738765716552734
H 5.462801456451416 8.42513656616211 -0.3996959626674652
H 7.612894058227539 6.395570278167725 -4.458298683166504
H 8.00471019744873 1.521626353263855 -3.8541531562805176
