16
Generated by QM7 dataset
N 2.323096990585327 -0.5100559592247009 -0.7291319370269775
C 5.099388122558594 -0.3584243655204773 -0.5981928110122681
C 5.910704135894775 2.3910138607025146 -0.08021887391805649
O 4.565804958343506 3.270359992980957 2.1063454151153564
C 8.751283645629883 2.6490747928619385 0.3986755311489105
C 10.259455680847168 2.1161909103393555 -1.8751752376556396
C 11.495506286621094 1.6830846071243286 -3.728353977203369
H 1.8201842308044434 -2.350687026977539 -1.0178065299987793
H 1.7152099609375 0.44240379333496094 -2.2944109439849854
H 5.922496318817139 -1.0701707601547241 -2.3569231033325195
H 5.718292236328125 -1.579489827156067 0.9551998972892761
H 5.34100866317749 3.59881329536438 -1.6664360761642456
H 2.914581298828125 2.4356112480163574 1.9916390180587769
H 9.323851585388184 1.3985484838485718 1.9492902755737305
H 9.156403541564941 4.571871280670166 1.0597584247589111
H 12.601619720458984 1.3058196306228638 -5.370091438293457
