14
Generated by QM7 dataset
O 1.107625126838684 0.06712307035923004 0.3549850583076477
C 3.7178850173950195 0.09985312819480896 -0.28032198548316956
C 4.618037223815918 2.7191081047058105 -1.0790714025497437
O 3.1508727073669434 4.510568618774414 -1.3104872703552246
N 7.2105712890625 2.789746046066284 -1.5318686962127686
C 8.680740356445312 4.9361348152160645 -0.7647721767425537
C 8.212617874145508 4.396617889404297 -3.475433111190796
H 0.38678914308547974 1.6117851734161377 -0.36375337839126587
H 4.025003433227539 -1.2229362726211548 -1.83974289894104
H 4.792251110076904 -0.5230194926261902 1.3717710971832275
H 10.482839584350586 4.437795162200928 0.05463198199868202
H 7.639236927032471 6.442000865936279 0.14479081332683563
H 6.843983173370361 5.529829978942871 -4.488855361938477
H 9.679970741271973 3.5141725540161133 -4.5894646644592285
