18
Generated by QM7 dataset
C 1.8780665397644043 -0.2504453957080841 0.09803899377584457
C 4.772087574005127 -0.008843918330967426 -0.015325678512454033
C 5.639963150024414 -1.376476526260376 -2.302517890930176
C 6.335212230682373 -2.493739366531372 -4.15186071395874
N 5.658482551574707 2.648942470550537 -0.056635092943906784
C 4.6068501472473145 4.149989604949951 2.0188701152801514
C 8.429954528808594 2.783320903778076 0.06175624951720238
H 1.122743010520935 0.41624996066093445 1.9049195051193237
H 1.293045163154602 -2.2289509773254395 -0.10132711380720139
H 0.967842161655426 0.8183647990226746 -1.4259873628616333
H 5.542056560516357 -0.9692594408988953 1.6565150022506714
H 6.950828552246094 -3.4699907302856445 -5.8020830154418945
H 2.56369686126709 4.3949737548828125 1.809998631477356
H 5.393486022949219 6.0670037269592285 2.009969472885132
H 4.995698928833008 3.3031656742095947 3.8684017658233643
H 9.313156127929688 1.873190999031067 -1.5727813243865967
H 9.176925659179688 1.9090579748153687 1.784846305847168
H 9.06293773651123 4.755571365356445 0.01298241876065731
