17
Generated by QM7 dataset
C 7.362070560455322 -4.681210517883301 1.8915024995803833
O 9.187337875366211 -2.7902374267578125 1.3509840965270996
C 8.025382995605469 -0.517482578754425 0.4704095125198364
C 9.963675498962402 1.5239129066467285 -0.0682758018374443
C 12.439481735229492 1.0239102840423584 -0.36709821224212646
O 8.887438774108887 3.9003190994262695 -0.16967850923538208
C 10.519651412963867 6.019439220428467 -0.4467501640319824
H 8.341856002807617 -6.335193634033203 2.6502842903137207
H 6.369019508361816 -5.237149238586426 0.16408492624759674
H 6.009159088134766 -4.012039661407471 3.307001829147339
H 6.713781356811523 0.16487860679626465 1.9247238636016846
H 6.958803176879883 -0.9083157777786255 -1.2619402408599854
H 13.13431453704834 -0.9042717218399048 -0.24848009645938873
H 13.846778869628906 2.460858106613159 -0.7407537698745728
H 9.358793258666992 7.727751731872559 -0.37643343210220337
H 11.47978401184082 5.975408554077148 -2.2777624130249023
H 11.884053230285645 6.116854667663574 1.1066614389419556
