16
Generated by QM7 dataset
C 4.8759660720825195 -0.8135271072387695 2.190230369567871
N 7.241430759429932 -2.0938544273376465 1.5900722742080688
C 8.817802429199219 -0.50725919008255 -0.057050831615924835
C 11.371275901794434 -1.62813138961792 -0.6314330697059631
C 12.370960235595703 -3.76157546043396 0.3171338438987732
C 12.93997573852539 -0.17861691117286682 -2.4594030380249023
O 12.20390796661377 1.7768528461456299 -3.4598617553710938
H 3.738199472427368 -2.0182275772094727 3.4276797771453857
H 3.769191026687622 -0.42889225482940674 0.4847147464752197
H 5.215625286102295 0.9636847376823425 3.1933536529541016
H 6.831038951873779 -3.723402976989746 0.6476280689239502
H 9.11913776397705 1.3325214385986328 0.8515861630439758
H 7.809312343597412 -0.18162158131599426 -1.8395349979400635
H 11.339282989501953 -4.891933917999268 1.6852010488510132
H 14.237120628356934 -4.437454700469971 -0.19861021637916565
H 14.822803497314453 -0.9692972302436829 -2.8780906200408936
