20
Generated by QM7 dataset
C 2.20538592338562 0.29991844296455383 0.3244659900665283
C 5.028050899505615 -0.017839014530181885 -0.19849683344364166
C 5.436647415161133 -1.3372836112976074 -2.7350385189056396
C 6.336062908172607 2.5106711387634277 -0.18787656724452972
N 7.144412040710449 3.6456029415130615 2.2017009258270264
C 9.09948444366455 2.710528612136841 0.49794283509254456
C 10.761120796203613 4.5576982498168945 -0.8259047865867615
H 1.8941103219985962 1.2011854648590088 2.1619412899017334
H 1.2467279434204102 -1.5337584018707275 0.3432498574256897
H 1.301322102546692 1.485513687133789 -1.1129164695739746
H 5.823040008544922 -1.2301172018051147 1.2851271629333496
H 4.666319847106934 -0.21901926398277283 -4.299108028411865
H 4.523135185241699 -3.1939773559570312 -2.7585277557373047
H 7.455461025238037 -1.614166259765625 -3.1024956703186035
H 5.579435348510742 3.8189852237701416 -1.5750867128372192
H 6.8803606033325195 2.432039737701416 3.6793534755706787
H 10.111735343933105 1.0317715406417847 1.0900129079818726
H 9.749399185180664 6.281336307525635 -1.3622280359268188
H 11.53360366821289 3.7067923545837402 -2.5454421043395996
H 12.34469223022461 5.093624591827393 0.3920236825942993
