15
Generated by QM7 dataset
C 2.1774179935455322 0.2159956991672516 0.40621551871299744
C 4.647913932800293 -0.1205645278096199 -0.028308097273111343
C 5.903806686401367 -2.6679909229278564 -0.3021294176578522
O 8.362302780151367 -2.1979782581329346 -1.3932194709777832
C 8.905088424682617 0.4841856360435486 -1.2547214031219482
C 7.585474014282227 2.197694778442383 -3.086811065673828
C 6.529778480529785 1.854463815689087 -0.4716945290565491
H 1.3730939626693726 2.0994668006896973 0.5114732980728149
H 0.9070685505867004 -1.3751726150512695 0.6481760740280151
H 4.857011795043945 -3.9271721839904785 -1.562463402748108
H 6.182825088500977 -3.564798355102539 1.5402779579162598
H 10.695321083068848 1.0829075574874878 -0.4638521671295166
H 8.474836349487305 3.9895708560943604 -3.5253028869628906
H 6.604460716247559 1.3512864112854004 -4.672650337219238
H 6.7035956382751465 3.3537914752960205 0.907465398311615
