12
Generated by QM7 dataset
O 1.6965394020080566 -0.20860686898231506 -0.006859705783426762
C 4.017576694488525 -0.15064896643161774 -0.01610046625137329
C 5.551070690155029 2.30947208404541 -0.07564573734998703
O 8.237845420837402 2.2395143508911133 -0.005329027771949768
C 9.280974388122559 -0.1257801651954651 0.008919507265090942
C 8.004464149475098 -2.3012895584106445 0.013492644764482975
N 5.428068161010742 -2.324079751968384 0.008371486328542233
H 4.928840160369873 3.451301336288452 1.5351378917694092
H 5.012876510620117 3.3125765323638916 -1.8070317506790161
H 11.324637413024902 -0.02048463188111782 0.026078220456838608
H 8.948722839355469 -4.121738433837891 0.031010406091809273
H 4.457127094268799 -3.9729602336883545 0.03210644796490669
