19
Generated by QM7 dataset
C 1.834035873413086 0.13133597373962402 0.2025030553340912
C 4.700467109680176 0.021637363359332085 -0.1130434200167656
C 5.648504734039307 -2.5476343631744385 -1.0432422161102295
C 5.105302810668945 -2.960085868835449 -3.842909336090088
C 6.021328926086426 -0.7067953944206238 -5.381335258483887
C 4.99191951751709 1.7549697160720825 -4.30778169631958
O 5.600109100341797 2.021326780319214 -1.6958024501800537
H 1.254797101020813 2.0158276557922363 0.8333503007888794
H 1.1933809518814087 -1.2554773092269897 1.5981602668762207
H 0.831214964389801 -0.23823776841163635 -1.5674899816513062
H 5.52705192565918 0.3618636429309845 1.756273627281189
H 4.839966773986816 -4.086324691772461 0.08225978165864944
H 7.706246376037598 -2.619292736053467 -0.7793041467666626
H 6.038449764251709 -4.688807487487793 -4.496433258056641
H 3.0719199180603027 -3.2262916564941406 -4.13579797744751
H 8.092411994934082 -0.6597789525985718 -5.315308094024658
H 5.465957164764404 -0.9148731231689453 -7.363544464111328
H 5.8422393798828125 3.3549253940582275 -5.308486461639404
H 2.944892406463623 1.8986834287643433 -4.5762176513671875
