15
Generated by QM7 dataset
C 1.8439003229141235 0.006859705783426762 0.02337591163814068
C 4.700750350952148 -0.009599808603525162 -0.013568233698606491
C 5.878692150115967 2.0102906227111816 1.6468018293380737
O 8.374528884887695 1.1237256526947021 2.2262864112854004
C 8.17125129699707 -1.5494431257247925 2.706711530685425
C 5.8645758628845215 -2.2822978496551514 1.2121648788452148
O 5.0738959312438965 -4.445278167724609 0.9964903593063354
H 1.0902774333953857 -1.5191130638122559 -1.1549817323684692
H 1.1080031394958496 1.8010979890823364 -0.6975167989730835
H 1.1049606800079346 -0.2756732404232025 1.9371960163116455
H 5.441183090209961 0.11032221466302872 -1.9425439834594727
H 4.852703094482422 2.280616044998169 3.427868604660034
H 6.0098395347595215 3.8345565795898438 0.6825124025344849
H 9.86442756652832 -2.4950621128082275 2.007097005844116
H 7.869594573974609 -1.864932894706726 4.724239826202393
