17
Generated by QM7 dataset
C 2.6319539546966553 -0.35642123222351074 1.291892409324646
C 4.579694747924805 0.2807755172252655 -0.7571187615394592
C 5.231574535369873 -2.0987865924835205 -2.2682571411132812
C 3.779849052429199 2.3921854496002197 -2.52061128616333
C 1.3974902629852295 3.034163236618042 -3.123433828353882
C 5.829710483551025 3.9507181644439697 -3.6689600944519043
O 8.077275276184082 3.567897319793701 -3.2686593532562256
H 2.104739189147949 1.332200288772583 2.367241144180298
H 3.4170026779174805 -1.728041172027588 2.6300830841064453
H 0.9109047055244446 -1.1858597993850708 0.4950326681137085
H 6.28717565536499 0.8869051933288574 0.2539792060852051
H 3.5831851959228516 -2.8141989707946777 -3.2985169887542725
H 5.896550178527832 -3.604595899581909 -1.012817621231079
H 6.730410575866699 -1.728853702545166 -3.647228240966797
H -0.2124619036912918 2.0048105716705322 -2.377464532852173
H 0.9588470458984375 4.586138725280762 -4.391837120056152
H 5.205798625946045 5.4951910972595215 -4.92311429977417
