11
Generated by QM7 dataset
C 2.2222235202789307 -0.06861595809459686 -1.1152596473693848
O 4.786411762237549 -0.1863269954919815 -0.29540199041366577
C 5.931415557861328 2.1340110301971436 -0.27374571561813354
C 8.421526908874512 2.371511697769165 0.07596699148416519
C 9.627985000610352 4.763262748718262 0.11591579765081406
N 10.608261108398438 6.723437786102295 0.1450553834438324
H 1.4638385772705078 -1.99127995967865 -1.1299995183944702
H 2.1000149250030518 0.6954570412635803 -3.0350892543792725
H 1.0874618291854858 1.068810224533081 0.18955843150615692
H 4.684347629547119 3.7365176677703857 -0.534320056438446
H 9.589452743530273 0.7102346420288086 0.34037747979164124
