17
Generated by QM7 dataset
C 4.229320526123047 -1.8926740884780884 2.068739891052246
C 4.149819850921631 -0.173760324716568 -0.2261246293783188
C 5.25534725189209 2.4020121097564697 0.38752612471580505
N 3.8937995433807373 4.0921454429626465 1.5324734449386597
N 7.701900005340576 2.979342222213745 -0.2590814530849457
O 9.369810104370117 0.9460536241531372 0.0077667743898928165
C 10.768963813781738 0.8000344634056091 -2.2898190021514893
H 3.44258975982666 -3.7469677925109863 1.6036404371261597
H 3.12846040725708 -1.09660804271698 3.6307497024536133
H 6.16530704498291 -2.160259246826172 2.7402162551879883
H 2.192838191986084 0.07536228001117706 -0.8535137176513672
H 5.194668292999268 -1.027179479598999 -1.7961468696594238
H 2.123957633972168 3.3881466388702393 1.8895750045776367
H 8.286883354187012 4.561193943023682 0.6678481101989746
H 12.070058822631836 -0.7986171841621399 -2.150508403778076
H 11.871221542358398 2.526979684829712 -2.5801753997802734
H 9.502317428588867 0.4765700399875641 -3.894026279449463
