19
Generated by QM7 dataset
C 2.730276346206665 5.864651679992676 1.8264013528823853
O 5.338004112243652 5.235334873199463 1.7012826204299927
C 5.826441287994385 3.391378164291382 -0.21384140849113464
C 8.653509140014648 2.794262409210205 -0.28880685567855835
C 10.188117980957031 4.987497329711914 -1.2579717636108398
C 11.665146827697754 4.9013261795043945 -3.3170928955078125
C 13.189986228942871 7.090346813201904 -4.2469706535339355
H 2.479793071746826 7.3114447593688965 3.2799599170684814
H 1.6123899221420288 4.20539665222168 2.345357894897461
H 2.0783398151397705 6.62706184387207 0.017498863860964775
H 5.176923751831055 4.095452308654785 -2.0519402027130127
H 4.779665470123291 1.663336992263794 0.24437938630580902
H 8.958454132080078 1.1239523887634277 -1.475838303565979
H 9.322000503540039 2.3395564556121826 1.6177756786346436
H 10.056744575500488 6.723116397857666 -0.15886928141117096
H 11.80517578125 3.16668963432312 -4.408806800842285
H 12.965051651000977 8.763378143310547 -3.0525312423706055
H 12.610198974609375 7.585984230041504 -6.167933940887451
H 15.194267272949219 6.586394786834717 -4.280210971832275
