12
Generated by QM7 dataset
N 1.4980803728103638 0.2840258479118347 0.3593314290046692
C 4.058999538421631 0.02639947459101677 0.06086807698011398
C 5.799002647399902 1.8338847160339355 0.35113000869750977
C 8.513084411621094 1.2507718801498413 -0.02579476125538349
O 9.332884788513184 -0.8245252966880798 -0.6335117816925049
C 10.379793167114258 3.378282308578491 0.36235499382019043
O 9.70075798034668 5.522308826446533 0.8825399279594421
H 0.451984703540802 -0.9279689192771912 -0.7074189782142639
H 0.8451611399650574 2.091038703918457 0.30229949951171875
H 4.608720779418945 -1.8973039388656616 -0.44331085681915283
H 5.3002471923828125 3.747515916824341 0.8781368136405945
H 12.36791706085205 2.8160321712493896 0.12542112171649933
