17
Generated by QM7 dataset
C 2.5011470317840576 0.5629683136940002 2.9659628868103027
C 3.51031756401062 1.1888456344604492 0.3560433089733124
C 5.1806464195251465 3.517422914505005 0.41853654384613037
C 3.908029317855835 6.061769008636475 0.8965805768966675
O 4.427288055419922 7.766717910766602 -1.1033732891082764
N 7.60257625579834 3.212893486022949 0.057485468685626984
N 9.041640281677246 5.324549198150635 0.13643822073936462
H 1.3952604532241821 -1.182685136795044 2.908515214920044
H 1.2781918048858643 2.0700058937072754 3.67980694770813
H 4.045544624328613 0.3135055601596832 4.320480823516846
H 1.9498382806777954 1.531641960144043 -0.9605666995048523
H 4.603240489959717 -0.4140011966228485 -0.36985719203948975
H 4.605489253997803 6.857475757598877 2.673490047454834
H 1.8610211610794067 5.833414554595947 1.036476969718933
H 6.250325679779053 7.56325101852417 -1.3918967247009277
H 10.700082778930664 4.970168590545654 -0.8049288392066956
H 9.638907432556152 5.638092517852783 1.953995704650879
