15
Generated by QM7 dataset
C 1.6584614515304565 -0.054688673466444016 -0.1155000627040863
C 4.4577317237854 -0.6161074042320251 0.07933070510625839
C 5.296014308929443 -3.3241982460021973 0.007710082456469536
C 3.7391254901885986 -5.302268981933594 -0.2428298145532608
N 5.944303512573242 1.3284775018692017 0.29324769973754883
N 8.503144264221191 0.7488417625427246 0.4630396068096161
C 9.82294750213623 2.7850594520568848 0.6924523711204529
H 1.316477656364441 1.979601502418518 0.039174024015665054
H 0.6386518478393555 -1.0007045269012451 1.4134773015975952
H 0.9402521252632141 -0.6996333003044128 -1.9433943033218384
H 7.315942287445068 -3.638573169708252 0.17436502873897552
H 1.707235336303711 -5.118814468383789 -0.4207664132118225
H 4.504219055175781 -7.206508636474609 -0.2766748070716858
H 11.892765045166016 2.663965940475464 0.8502066731452942
H 8.97901439666748 4.69135856628418 0.7417930960655212
