12
Generated by QM7 dataset
N 1.852819800376892 -0.25602009892463684 0.9694105982780457
C 4.339132308959961 -0.03558354452252388 0.24169597029685974
C 5.7305755615234375 2.072953939437866 -0.02857265993952751
C 4.643415927886963 4.625463962554932 0.3675706386566162
O 2.376859664916992 5.0245361328125 0.6695677638053894
C 8.41736888885498 1.78824782371521 -0.7351223826408386
O 9.816276550292969 3.606088876724243 -1.0474374294281006
H 0.8571419715881348 -1.6231613159179688 0.052326515316963196
H 0.9145140647888184 1.4487584829330444 0.9716026782989502
H 5.164186954498291 -1.8919181823730469 -0.08677622675895691
H 6.020969867706299 6.1896843910217285 0.3484466075897217
H 9.106363296508789 -0.1644817590713501 -0.9730955958366394
