20
Generated by QM7 dataset
C 4.460944175720215 -1.3155895471572876 2.729501485824585
C 4.91170072555542 -0.31904247403144836 0.07309460639953613
C 6.0132975578308105 2.296924352645874 0.1129489317536354
C 8.47615909576416 2.9443445205688477 -0.022487740963697433
C 10.619070053100586 1.0738557577133179 -0.18776318430900574
C 9.260092735290527 5.688056945800781 -0.055690228939056396
N 10.821554183959961 6.302614688873291 2.1219167709350586
H 3.61472487449646 -3.200345754623413 2.651474714279175
H 3.1792941093444824 -0.0809936597943306 3.785858392715454
H 6.236247539520264 -1.455939531326294 3.7844600677490234
H 3.110243558883667 -0.2536957263946533 -0.9502109885215759
H 6.105346202850342 -1.6368807554244995 -0.9834702014923096
H 4.60834264755249 3.7966487407684326 0.24776199460029602
H 9.992342948913574 -0.8929522633552551 -0.16811004281044006
H 11.908864974975586 1.2998102903366089 1.4148190021514893
H 11.688182830810547 1.368955373764038 -1.9344748258590698
H 7.610645294189453 6.9420599937438965 -0.06978758424520493
H 10.317904472351074 6.074732303619385 -1.7933123111724854
H 9.787949562072754 6.010122776031494 3.7197747230529785
H 11.236953735351562 8.179547309875488 2.0863144397735596
