14
Generated by QM7 dataset
C 1.8661234378814697 -0.07317019253969193 -0.015117809176445007
C 4.663012504577637 0.10665614157915115 -0.00039684248622506857
C 6.240801811218262 2.1823692321777344 0.006425068713724613
C 8.758691787719727 1.2811020612716675 0.02008778788149357
C 8.668608665466309 -1.3171579837799072 0.021202728152275085
O 10.542498588562012 -2.9848225116729736 0.0320308580994606
N 6.169445514678955 -2.0120480060577393 0.008465972729027271
H 1.0019139051437378 1.8061057329177856 0.0013795000268146396
H 1.1947226524353027 -1.101710319519043 1.6494096517562866
H 1.2108420133590698 -1.0652953386306763 -1.7078967094421387
H 5.6473708152771 4.14046573638916 0.0020786987151950598
H 10.468894004821777 2.402219772338867 0.028289200738072395
H 9.859004020690918 -4.686275005340576 0.029725391417741776
H 5.518095016479492 -3.8044345378875732 0.005990431644022465
