16
Generated by QM7 dataset
C 1.971437931060791 0.015798110514879227 0.028383687138557434
C 4.487249374389648 -0.10610812157392502 0.00026456164778210223
C 6.238004684448242 -2.3204891681671143 0.09681066870689392
C 8.672425270080566 -0.7336483597755432 -0.0733213722705841
C 8.272483825683594 1.348697543144226 -2.1472012996673584
C 6.212418079376221 2.0951015949249268 -0.1442994922399521
N 8.275904655456543 1.4571678638458252 1.7789503335952759
H 0.8379234671592712 -1.6889994144439697 0.1474742293357849
H 0.9841504693031311 1.8120017051696777 -0.0430101677775383
H 6.031230926513672 -3.576911449432373 -1.5298278331756592
H 6.119009017944336 -3.3651676177978516 1.8755720853805542
H 10.494575500488281 -1.69211745262146 0.018991747871041298
H 7.606091022491455 0.7091008424758911 -3.996978759765625
H 9.8265380859375 2.693162202835083 -2.4148621559143066
H 5.450499057769775 4.00797700881958 -0.11166391521692276
H 9.717595100402832 2.734452724456787 1.8172739744186401
