13
Generated by QM7 dataset
C 1.882110595703125 -0.07056237012147903 -0.14125703275203705
C 4.762109756469727 0.0 0.0
O 5.495285987854004 -1.2099727392196655 2.2990975379943848
C 5.839858531951904 -1.579565405845642 -2.170539379119873
O 7.694227695465088 -1.0252141952514648 -3.457631826400757
C 5.672995567321777 2.5722384452819824 0.0
C 6.423746109008789 4.692322254180908 0.0
H 1.179113507270813 0.7757136821746826 -1.8962267637252808
H 1.0299007892608643 0.9434079527854919 1.4529536962509155
H 1.1771292686462402 -2.01686692237854 -0.044144000858068466
H 7.295589923858643 -0.8764550089836121 2.505871295928955
H 4.900002956390381 -3.419534921646118 -2.463465929031372
H 7.105842590332031 6.587623119354248 -0.01062026061117649
