12
Generated by QM7 dataset
O 1.7278900146484375 0.020900370553135872 -0.021353906020522118
C 4.453328609466553 0.037832316011190414 -0.01568472757935524
C 5.759582996368408 1.9370638132095337 1.77388596534729
N 7.650404930114746 -0.03019782342016697 2.405621290206909
C 5.803802490234375 -1.9752929210662842 1.6098198890686035
H 1.2683842182159424 -1.5092865228652954 -0.9285169243812561
H 5.183140754699707 0.13184618949890137 -1.9562634229660034
H 4.608626365661621 2.5292093753814697 3.3912835121154785
H 6.542760848999023 3.6205830574035645 0.8658913969993591
H 9.219690322875977 0.04147948697209358 1.2880562543869019
H 6.62161922454834 -3.5592992305755615 0.5640643835067749
H 4.667283535003662 -2.7262134552001953 3.1699023246765137
