14
Generated by QM7 dataset
O 1.9545437097549438 0.024982178583741188 0.33015406131744385
C 4.214107990264893 0.019520871341228485 0.07377491146326065
C 6.517703056335449 -1.9243648052215576 0.006179404444992542
C 7.989743232727051 -1.5431314706802368 2.463484764099121
C 8.041011810302734 1.3697868585586548 2.5401508808135986
C 6.5484490394592285 1.9298639297485352 0.13037221133708954
N 7.555370807647705 0.05491544306278229 -1.7936146259307861
H 6.195977210998535 -3.7968945503234863 -0.7759593725204468
H 6.995634078979492 -2.3323566913604736 4.096642971038818
H 9.894813537597656 -2.3432037830352783 2.3761227130889893
H 9.974447250366211 2.100525140762329 2.4489905834198
H 7.113855361938477 2.1125059127807617 4.232438564300537
H 6.254143238067627 3.853132724761963 -0.5301059484481812
H 9.473291397094727 0.04748881608247757 -1.98472261428833
