12
Generated by QM7 dataset
N 1.889726161956787 0.0 0.0
C 4.064819812774658 0.0 0.0
C 6.79358434677124 0.0 0.0
C 7.877285480499268 -2.268219470977783 -1.4803358316421509
N 8.746691703796387 -1.272806167602539 -3.983769416809082
C 8.646158218383789 1.158855676651001 -3.6947357654571533
N 7.857008934020996 2.1026227474212646 -1.4392532110214233
H 7.520902156829834 0.01636502891778946 1.9366669654846191
H 6.504153728485107 -3.7916977405548096 -1.7632089853286743
H 9.527469635009766 -3.053154945373535 -0.5027994513511658
H 9.114583969116211 2.5498640537261963 -5.170668601989746
H 6.858855724334717 3.7399003505706787 -1.477350115776062
