16
Generated by QM7 dataset
C 4.269874095916748 -0.916063666343689 -2.5927042961120605
N 4.449662685394287 0.16739194095134735 -0.0658002644777298
C 6.073882102966309 2.4175455570220947 -0.13783662021160126
C 4.543449878692627 4.797031879425049 -0.8714849948883057
N 5.8047661781311035 6.158466339111328 1.2449893951416016
C 6.1629638671875 3.6653127670288086 2.5007312297821045
H 3.02046275138855 -2.5634891986846924 -2.546349287033081
H 6.119424343109131 -1.5390307903289795 -3.2810370922088623
H 3.467571973800659 0.43142446875572205 -3.9418931007385254
H 5.080491065979004 -1.1887511014938354 1.148651123046875
H 7.922695636749268 2.2115843296051025 -1.0486657619476318
H 2.4873898029327393 4.675635814666748 -0.6376692056655884
H 4.94730281829834 5.569400787353516 -2.745866537094116
H 7.4661946296691895 6.985032558441162 0.723273754119873
H 7.953498363494873 3.4688947200775146 3.5180275440216064
H 4.616128444671631 3.1917662620544434 3.799483299255371
