17
Generated by QM7 dataset
N 1.9112123250961304 0.03488434478640556 -0.09582801163196564
C 4.649633407592773 0.008617151528596878 0.07904724776744843
C 5.680403232574463 2.1271703243255615 1.7359213829040527
C 8.369842529296875 1.248371958732605 2.2460339069366455
C 8.134968757629395 -1.602979063987732 2.618215560913086
C 5.667194366455078 -2.3897664546966553 1.3267199993133545
H 1.3160052299499512 -1.405975103378296 -1.2252984046936035
H 1.3255484104156494 1.6681557893753052 -0.9304255843162537
H 5.451179504394531 0.17842793464660645 -1.8276864290237427
H 4.630074501037598 2.273416042327881 3.516648054122925
H 5.625525951385498 3.968991756439209 0.7971431612968445
H 9.570442199707031 1.645157814025879 0.6043910980224609
H 9.2101469039917 2.1873958110809326 3.8840107917785645
H 9.76803207397461 -2.5983545780181885 1.8318816423416138
H 8.042787551879883 -2.0609731674194336 4.63767147064209
H 5.973065376281738 -3.8931381702423096 -0.06054682657122612
H 4.354647159576416 -3.1260604858398438 2.7509310245513916
