13
Generated by QM7 dataset
C 1.9011400938034058 -0.14700180292129517 0.011961966753005981
N 4.647195816040039 -0.09116038680076599 -0.010299007408320904
C 5.716856002807617 2.0662076473236084 -0.010299007408320904
C 4.677412509918213 4.65375280380249 0.010185623541474342
C 6.614967346191406 6.263742923736572 -0.0007747877389192581
C 8.810016632080078 4.613936424255371 -0.026871904730796814
N 8.300244331359863 2.233656406402588 -0.03178519383072853
H 1.2652472257614136 -2.11518931388855 -0.0005291232955642045
H 1.1072282791137695 0.7684193253517151 -1.6659070253372192
H 1.136367917060852 0.7381837368011475 1.7192350625991821
H 2.6963367462158203 5.09415340423584 0.02985767275094986
H 6.624038219451904 8.292533874511719 0.007388829253613949
H 10.718810081481934 5.431148529052734 -0.0404779352247715
