11
Generated by QM7 dataset
C 1.889726161956787 0.0 0.0
C 4.138802528381348 0.0 0.0
C 6.86756706237793 0.0 0.0
C 7.812279224395752 -1.3367544412612915 -2.1832950115203857
C 8.590940475463867 -2.438521385192871 -3.9827868938446045
C 7.7784528732299805 2.5722384452819824 0.0
C 8.529203414916992 4.692322254180908 0.0
H -0.12445736676454544 0.005329027771949768 -0.009202966466546059
H 7.540441989898682 -0.9521006941795349 1.7139438390731812
H 9.282788276672363 -3.4174563884735107 -5.599390983581543
H 9.196635246276855 6.5930657386779785 -0.009202966466546059
