10
Generated by QM7 dataset
O 1.867351770401001 -0.13424614071846008 -0.5698658227920532
C 4.443180561065674 -0.05757995694875717 0.16338571906089783
C 5.268329620361328 2.6350529193878174 0.1020263135433197
C 6.313291549682617 3.869516611099243 2.0492947101593018
H 1.3360930681228638 -1.8865325450897217 -0.44314077496528625
H 5.551089286804199 -1.172839641571045 -1.1796237230300903
H 4.6276936531066895 -0.8880200982093811 2.0488789081573486
H 4.968751430511475 3.6338109970092773 -1.668835997581482
H 6.632900714874268 2.9601993560791016 3.859614372253418
H 6.8534321784973145 5.840368747711182 1.8676162958145142
