12
Generated by QM7 dataset
C 5.459589004516602 -2.094723701477051 0.701674222946167
C 4.324827194213867 0.12107475101947784 0.24776199460029602
C 5.686620712280273 2.4347610473632812 0.12122593075037003
N 4.662445545196533 4.681172847747803 -0.32172587513923645
C 6.632882118225098 6.362008571624756 -0.279792845249176
C 8.837531089782715 5.099784851074219 0.1913536638021469
O 8.280458450317383 2.6089370250701904 0.45156896114349365
H 4.362565040588379 -3.825259208679199 0.7855969667434692
H 7.484846115112305 -2.246884346008301 0.9985123872756958
H 2.2977747917175293 0.21525870263576508 -0.04149838536977768
H 6.352352142333984 8.359694480895996 -0.5877048373222351
H 10.798065185546875 5.626961708068848 0.38765841722488403
