17
Generated by QM7 dataset
C 1.7237515449523926 0.025360124185681343 0.01880277507007122
C 4.608891010284424 0.009599808603525162 0.11277885735034943
C 5.524198532104492 -1.5669041872024536 2.3566019535064697
O 5.508892059326172 -1.1758631467819214 -2.150470495223999
C 5.644611835479736 2.74580979347229 0.17993971705436707
N 8.400531768798828 2.799440383911133 -0.19415046274662018
H 1.0452452898025513 1.0450752973556519 -1.651809573173523
H 0.9117361903190613 0.9119251370429993 1.7032856941223145
H 0.9776309132575989 -1.9009133577346802 -0.13515321910381317
H 4.966691493988037 -0.7172077298164368 4.159381866455078
H 7.582185745239258 -1.7926509380340576 2.340085744857788
H 4.743099212646484 -3.4842958450317383 2.2710728645324707
H 7.191220283508301 -0.44559741020202637 -2.421041488647461
H 5.152735233306885 3.6849093437194824 1.958549976348877
H 4.805479049682617 3.836219549179077 -1.3682750463485718
H 9.270845413208008 2.0670580863952637 1.3628138303756714
H 8.975008964538574 4.638748645782471 -0.2875785231590271
