12
Generated by QM7 dataset
O 2.0737287998199463 -0.4572003483772278 -0.9722452163696289
C 3.913774013519287 0.21966177225112915 0.2869926989078522
C 5.680535793304443 2.474728584289551 -0.30500179529190063
C 4.5774078369140625 5.148823261260986 -0.13711853325366974
C 6.841375350952148 5.709070682525635 1.551899790763855
O 7.4745659828186035 3.052002191543579 1.7114304304122925
H 4.410658359527588 -0.8349376916885376 2.0143725872039795
H 6.721529006958008 2.1457462310791016 -2.069817066192627
H 2.7479264736175537 5.285752773284912 0.8150010704994202
H 4.522776126861572 6.194276809692383 -1.9168626070022583
H 8.36630916595459 6.789748191833496 0.6685851216316223
H 6.387746810913086 6.505552291870117 3.4029054641723633
