15
Generated by QM7 dataset
N 2.672356128692627 -0.7631847858428955 -1.508719563484192
C 5.3937506675720215 -0.5108118653297424 -0.9767805337905884
C 6.070159435272217 2.2667453289031982 -0.379645973443985
O 4.4850006103515625 3.1296510696411133 1.6241440773010254
C 8.751435279846191 2.5570261478424072 0.47704246640205383
C 10.537055969238281 3.833800792694092 -0.7874866724014282
H 2.281352996826172 -2.621295928955078 -1.8482089042663574
H 2.263967514038086 0.16217629611492157 -3.1516475677490234
H 6.4961981773376465 -1.2064768075942993 -2.58601450920105
H 5.817465305328369 -1.7094085216522217 0.6607616543769836
H 5.680422306060791 3.4525673389434814 -2.0325515270233154
H 2.8780529499053955 2.258298397064209 1.3395891189575195
H 9.233466148376465 1.6896607875823975 2.277308940887451
H 10.1401948928833 4.766456127166748 -2.5700275897979736
H 12.438328742980957 3.9949567317962646 -0.033939480781555176
