13
Generated by QM7 dataset
C -2.7591891288757324 1.1035622358322144 0.5420679450035095
C -2.5511491298675537 -1.4468121528625488 -0.7353113293647766
C -0.5553148984909058 -2.781790256500244 0.7198345065116882
N 1.7748874425888062 -2.0714988708496094 0.8758313655853271
N 2.655745506286621 -0.12213300168514252 -0.6512941122055054
C 1.5082281827926636 2.0129551887512207 -0.9517605900764465
O -0.8086327314376831 2.821946859359741 -0.23576223850250244
H -4.550309181213379 1.9848361015319824 -0.004044014029204845
H -2.733715534210205 0.9893283247947693 2.6104676723480225
H -2.025540828704834 -1.3174982070922852 -2.72957706451416
H -4.310370922088623 -2.51686954498291 -0.5527827143669128
H -1.1557186841964722 -4.411716938018799 1.8700919151306152
H 2.455472230911255 3.5464489459991455 -1.991865873336792
