11
Generated by QM7 dataset
O 1.9832487106323242 -0.15293553471565247 0.26446717977523804
C 4.547285556793213 0.042292069643735886 0.06795455515384674
C 5.710695743560791 2.36128830909729 -0.05997990816831589
C 8.300773620605469 2.2864930629730225 -0.26104676723480225
N 9.642044067382812 0.12880373001098633 -0.3303430378437042
C 8.286977767944336 -2.0113489627838135 -0.18740414083003998
N 5.770411014556885 -2.168951988220215 0.012264322489500046
H 1.2684975862503052 1.529412031173706 0.23328669369220734
H 4.697386741638184 4.129788398742676 -0.00818251445889473
H 9.408323287963867 4.01016902923584 -0.3759610056877136
H 9.326573371887207 -3.7768256664276123 -0.23908814787864685
