11
Generated by QM7 dataset
O 2.2936360836029053 0.8709369897842407 -1.619816541671753
C 3.9642295837402344 0.44064635038375854 -0.0742284432053566
C 6.044950485229492 2.259016513824463 0.366115540266037
N 7.021088600158691 3.51969051361084 -1.9089446067810059
C 5.620291233062744 5.047893047332764 -0.053592633455991745
C 6.923673152923584 6.789030075073242 1.5686427354812622
N 7.938852787017822 8.172479629516602 2.9359164237976074
H 4.005463600158691 -1.3084086179733276 1.0567537546157837
H 7.47322416305542 1.6729367971420288 1.713320255279541
H 5.867448329925537 3.1369075775146484 -3.4208199977874756
H 3.759685754776001 5.659597396850586 -0.6639552712440491
