9
Generated by QM7 dataset
C 1.8277242183685303 0.07190407812595367 -0.000944863073527813
C 4.099231719970703 0.01712091825902462 -0.0001511780865257606
C 6.781433582305908 -0.04775337874889374 0.0007936849724501371
N 8.083247184753418 2.1044178009033203 0.005706972908228636
O 10.609262466430664 1.3347513675689697 0.0051400549709796906
N 10.805604934692383 -1.3000181913375854 -0.00017007534916047007
C 8.419466972351074 -2.106874465942383 -0.002777897519990802
H -0.18264202773571014 0.14201292395591736 -0.0016062671784311533
H 8.021093368530273 -4.106412887573242 -0.0070297811180353165
