15
Generated by QM7 dataset
C 1.889726161956787 0.0 0.0
C 4.618490695953369 0.0 0.0
C 6.86756706237793 0.0 0.0
C 9.596331596374512 0.0 0.0
O 10.524356842041016 -1.1674916744232178 -2.264723300933838
C 10.691597938537598 2.6846771240234375 0.12547782063484192
O 13.391392707824707 2.5992238521575928 0.0852455422282219
H 1.1451929807662964 1.9291836023330688 0.02243104949593544
H 1.1450228691101074 -0.9839993119239807 1.6594252586364746
H 1.1451362371444702 -0.9450709223747253 -1.6819696426391602
H 10.343963623046875 -1.1163935661315918 1.5735182762145996
H 9.40316390991211 -0.6483272314071655 -3.6277072429656982
H 10.096240043640137 3.6661064624786377 1.8460357189178467
H 10.093612670898438 3.806588649749756 -1.5083227157592773
H 13.833343505859375 1.2907962799072266 -1.1417914628982544
