16
Generated by QM7 dataset
C 3.6758575439453125 -1.7145484685897827 1.9966846704483032
C 5.1931562423706055 -0.722196638584137 -0.22243966162204742
C 5.316442012786865 2.115283727645874 -0.12942734360694885
N 7.471240043640137 3.257528781890869 0.08040785044431686
N 7.272970199584961 5.808772563934326 0.12183064222335815
C 9.6536283493042 7.168487071990967 0.41271618008613586
H 3.572262763977051 -3.7787342071533203 1.9342480897903442
H 1.7458990812301636 -0.9684279561042786 1.9695860147476196
H 4.538498401641846 -1.1590068340301514 3.793303966522217
H 4.281533718109131 -1.2613544464111328 -1.999216914176941
H 7.104992389678955 -1.512215495109558 -0.19885587692260742
H 3.503419876098633 3.145128011703491 -0.2503698170185089
H 6.366128444671631 6.482062816619873 -1.4465097188949585
H 10.612702369689941 6.606142520904541 2.156555414199829
H 9.290687561035156 9.20124626159668 0.5126637816429138
H 10.910806655883789 6.808437824249268 -1.1899038553237915
