13
Generated by QM7 dataset
C 4.04512882232666 -0.8792517781257629 -3.0347301959991455
C 4.86317253112793 -0.14730414748191833 -0.41466259956359863
O 4.329664707183838 -1.4195433855056763 1.4496089220046997
C 6.4587249755859375 2.1502249240875244 -0.10590025037527084
C 7.198760509490967 3.9010939598083496 -2.223886489868164
N 5.110575199127197 4.544885635375977 -0.5555227994918823
H 5.702456474304199 -1.1967068910598755 -4.22382116317749
H 2.846116542816162 0.5930149555206299 -3.844137668609619
H 2.9552104473114014 -2.6332199573516846 -2.9465932846069336
H 7.679733753204346 2.108367443084717 1.5404480695724487
H 6.698001861572266 3.4510934352874756 -4.154355049133301
H 8.910417556762695 5.007528781890869 -2.0193612575531006
H 5.625072002410889 5.8444695472717285 0.7767719030380249
