15
Generated by QM7 dataset
C 1.8551063537597656 -0.05871379002928734 -0.21601459383964539
C 4.735313415527344 -0.011584021151065826 -0.10004210472106934
C 5.896153450012207 -1.7096730470657349 -2.1199514865875244
C 5.735734462738037 2.674245834350586 -0.3054364323616028
N 5.221256732940674 3.9338808059692383 -2.4900355339050293
O 6.949278831481934 3.6963610649108887 1.384451150894165
H 1.0425996780395508 1.2223315238952637 1.1924738883972168
H 1.1402606964111328 -1.9635388851165771 0.16253533959388733
H 1.14919912815094 0.5259296894073486 -2.07180118560791
H 5.319314479827881 -0.7248422503471375 1.7580311298370361
H 5.291460037231445 -1.1666035652160645 -4.023453712463379
H 5.34709358215332 -3.682169198989868 -1.8192960023880005
H 7.962871074676514 -1.6047931909561157 -2.0681352615356445
H 4.2321929931640625 3.1812026500701904 -3.9370365142822266
H 5.8755364418029785 5.723092079162598 -2.652608633041382
