19
Generated by QM7 dataset
C 2.860081672668457 -0.24146920442581177 1.0504231452941895
N 5.530736923217773 0.3794381022453308 1.2780596017837524
C 6.021196365356445 3.118256092071533 1.2348982095718384
C 4.745593547821045 4.537459373474121 3.409292697906494
C 8.859564781188965 3.4101619720458984 1.4274234771728516
C 10.464547157287598 3.5562379360198975 -0.9269106984138489
N 10.06248950958252 5.781617164611816 0.6465697884559631
H 2.652249574661255 -2.2918787002563477 0.8567829132080078
H 2.005490779876709 0.6379526257514954 -0.6196411848068237
H 1.7990003824234009 0.306891530752182 2.7353408336639404
H 6.466813087463379 -0.4191034734249115 -0.205677792429924
H 5.354822635650635 3.9075567722320557 -0.5641966462135315
H 5.274622440338135 3.7421867847442627 5.246635437011719
H 2.6842615604400635 4.4929938316345215 3.247229814529419
H 5.313947677612305 6.5290985107421875 3.411919355392456
H 9.645180702209473 2.510746717453003 3.0944831371307373
H 9.549371719360352 3.5940701961517334 -2.756770372390747
H 12.335527420043945 2.729917287826538 -0.8910625576972961
H 11.60477066040039 6.140797138214111 1.7526075839996338
