14
Generated by QM7 dataset
C 2.0920212268829346 -0.15408827364444733 1.081263542175293
C 4.762109756469727 0.0 0.0
N 4.828892707824707 -0.9534991383552551 -2.566059112548828
C 4.9732489585876465 -3.4808754920959473 -3.086036205291748
O 5.110462188720703 -5.17356014251709 -1.5223634243011475
C 5.672995567321777 2.5722384452819824 0.0
C 6.423746109008789 4.692322254180908 0.0
H 2.0328917503356934 0.563705325126648 3.0229382514953613
H 1.4091687202453613 -2.1083486080169678 1.104204773902893
H 0.7532826066017151 0.9576753973960876 -0.04412510618567467
H 6.004793643951416 -1.1861244440078735 1.1589500904083252
H 4.603278160095215 0.2806999087333679 -4.006729602813721
H 4.9539361000061035 -3.8530571460723877 -5.1363701820373535
H 7.102667808532715 6.588662624359131 0.008787226863205433
