15
Generated by QM7 dataset
C 1.8631187677383423 0.11427173763513565 0.008806123398244381
C 4.661746501922607 -0.05684296041727066 0.005253438837826252
C 6.119708061218262 -2.148467540740967 -0.0001511780865257606
C 8.720160484313965 -1.2853161096572876 -0.0015495754778385162
C 10.76571273803711 -2.7595858573913574 -0.006973089650273323
C 8.715039253234863 1.4475302696228027 0.00247554131783545
C 6.283055782318115 2.1710119247436523 0.0070297811180353165
H 0.9933534264564514 -1.7631522417068481 0.001851931563578546
H 1.1931730508804321 1.1296026706695557 -1.6647164821624756
H 1.196669101715088 1.1157320737838745 1.6920418739318848
H 5.500010013580322 -4.088649272918701 -0.0025889247190207243
H 10.6065034866333 -4.8033246994018555 -0.010110034607350826
H 12.654438018798828 -1.9627074003219604 -0.007653390988707542
H 10.355623245239258 2.653043270111084 0.002645616652444005
H 5.598785877227783 4.093052387237549 0.010790335945785046
