11
Generated by QM7 dataset
C -2.289062976837158 0.03010333701968193 -0.28975170850753784
C -0.7056615352630615 -2.338517189025879 0.1635558009147644
C 1.8852096796035767 -1.311621069908142 -0.04015668109059334
C 1.7408157587051392 1.186445713043213 -0.16909269988536835
O -0.653127133846283 2.2092599868774414 -0.1163504347205162
H -3.1342809200286865 0.013606027700006962 -2.1810085773468018
H -3.8120310306549072 0.21463508903980255 1.0980820655822754
H -1.107625126838684 -3.798368453979492 -1.2424004077911377
H -1.0386879444122314 -3.121922016143799 2.0492568016052246
H 3.6047849655151367 -2.4076433181762695 -0.011206075549125671
H 3.2530124187469482 2.548522472381592 -0.25356346368789673
