13
Generated by QM7 dataset
O 2.667499542236328 0.573645293712616 1.565694808959961
C 4.549232006072998 -0.01702643185853958 0.37210598587989807
C 5.454448699951172 -2.672053813934326 -0.17256979644298553
C 7.689786911010742 -2.375706911087036 -2.005831003189087
C 8.384374618530273 0.36388567090034485 -1.9885021448135376
O 6.656786918640137 1.9867446422576904 -3.2793173789978027
C 6.408250331878662 1.8237557411193848 -0.585115909576416
H 3.9403812885284424 -3.807741403579712 -0.9975486397743225
H 6.081081867218018 -3.5233376026153564 1.6061160564422607
H 9.275399208068848 -3.563570022583008 -1.4117199182510376
H 7.143466949462891 -2.9654905796051025 -3.9139063358306885
H 10.361368179321289 0.8415517210960388 -1.8765736818313599
H 6.937695026397705 3.4151129722595215 0.5745901465415955
