16
Generated by QM7 dataset
O 1.8851341009140015 0.03760555014014244 -0.18118694424629211
C 4.579051971435547 -0.10818681865930557 0.07910393923521042
C 5.9125752449035645 -1.5164107084274292 -1.9739701747894287
C 6.102020263671875 1.3304427862167358 -1.8624951839447021
C 8.542374610900879 2.697357177734375 -1.1722726821899414
C 11.084301948547363 1.9796204566955566 -2.2597343921661377
N 9.776668548583984 4.233270168304443 -3.1217331886291504
H 1.2520569562911987 1.662807822227478 0.3979952335357666
H 5.341254234313965 -0.2750118374824524 1.9771448373794556
H 4.7820844650268555 -2.3375723361968994 -3.472447395324707
H 7.549890518188477 -2.6294593811035156 -1.4575079679489136
H 4.986174583435059 2.3247411251068115 -3.283947229385376
H 8.560742378234863 3.5403263568878174 0.7030915021896362
H 11.175027847290039 0.4309898316860199 -3.5952606201171875
H 12.754592895507812 2.256049633026123 -1.111555814743042
H 10.545503616333008 5.8247785568237305 -2.348400354385376
