19
Generated by QM7 dataset
C 5.899517059326172 -2.5320630073547363 -1.2843334674835205
C 4.768194675445557 -0.4257930815219879 0.3372594118118286
N 4.49705696105957 -1.2671747207641602 2.9911153316497803
C 6.2683916091918945 2.1215009689331055 0.12413611263036728
N 5.157591819763184 4.001967430114746 1.8470749855041504
C 9.029168128967285 1.8941103219985962 0.7900189161300659
C 10.930572509765625 2.060765266418457 -0.8759636282920837
H 6.079607963562012 -1.9148595333099365 -3.2507636547088623
H 4.680908203125 -4.20539665222168 -1.2648881673812866
H 7.768437385559082 -3.11175537109375 -0.6149546504020691
H 2.8457953929901123 -0.06719866394996643 -0.3573472201824188
H 6.256939888000488 -1.6162638664245605 3.7045435905456543
H 3.582618474960327 -2.963449716567993 3.023505210876465
H 6.0776238441467285 2.835061550140381 -1.8137590885162354
H 4.768667221069336 3.039000988006592 3.4852406978607178
H 3.410369873046875 4.462172508239746 1.1819292306900024
H 9.485669136047363 1.6137316226959229 2.7737021446228027
H 10.592991828918457 2.3674678802490234 -2.872138023376465
H 12.87992000579834 1.910097360610962 -0.25095564126968384
