15
Generated by QM7 dataset
C 1.889726161956787 0.0 0.0
C 4.618490695953369 0.0 0.0
C 6.86756706237793 0.0 0.0
C 9.587488174438477 -0.12783996760845184 -0.07194187492132187
C 10.862826347351074 -2.6506054401397705 -0.12838798761367798
N 10.60792064666748 2.1010730266571045 -0.09507212042808533
N 13.168707847595215 2.1461052894592285 -0.17143595218658447
H 1.145079493522644 1.9291269779205322 0.022053103893995285
H 1.1451174020767212 -0.983715832233429 1.6596519947052002
H 1.1451362371444702 -0.9454866647720337 -1.681723952293396
H 9.4735746383667 -4.1807732582092285 -0.13271546363830566
H 12.069737434387207 -2.8563778400421143 1.5365173816680908
H 12.024818420410156 -2.8065457344055176 -1.8303887844085693
H 13.756223678588867 3.9664595127105713 -0.45825859904289246
H 13.916661262512207 1.6513749361038208 1.5412228107452393
