17
Generated by QM7 dataset
C 7.834426403045654 -1.4739296436309814 0.5172558426856995
O 6.934085369110107 0.4638899564743042 2.1415889263153076
C 6.509274959564209 2.814954996109009 0.8660615086555481
C 4.802947044372559 4.393934726715088 2.570878028869629
C 8.978580474853516 4.140522003173828 0.44236600399017334
C 10.218127250671387 4.197856426239014 -2.125034809112549
O 8.83637809753418 6.32041597366333 -1.1678696870803833
H 7.949321746826172 -3.227179765701294 1.6066073179244995
H 9.726476669311523 -1.023740291595459 -0.18341681361198425
H 6.535429000854492 -1.7712781429290771 -1.065219759941101
H 5.511253833770752 2.472064256668091 -0.9181045293807983
H 5.694406032562256 4.730797290802002 4.410488605499268
H 3.025073528289795 3.3991260528564453 2.938032865524292
H 4.36987829208374 6.2286505699157715 1.7162492275238037
H 10.143294334411621 4.2655463218688965 2.1181750297546387
H 9.377141952514648 3.1470932960510254 -3.6644058227539062
H 12.255024909973145 4.361034393310547 -2.211848735809326
