16
Generated by QM7 dataset
C 1.6075143814086914 -0.23037651181221008 0.0370764285326004
C 4.463098526000977 -0.3776995539665222 -0.1105300784111023
O 5.482208728790283 2.032683849334717 0.5412742495536804
N 8.116713523864746 1.9342291355133057 0.25072887539863586
C 9.056815147399902 4.059169292449951 0.9688814878463745
O 11.555845260620117 4.604355335235596 0.9242839217185974
C 13.172317504882812 2.655046224594116 -0.027212055400013924
H 0.7509393692016602 -2.0571746826171875 -0.41269728541374207
H 0.8842217326164246 1.1883920431137085 -1.2852216958999634
H 1.001630425453186 0.34553641080856323 1.9290891885757446
H 5.046721458435059 -0.8882468938827515 -2.0294525623321533
H 5.171329975128174 -1.8004932403564453 1.2176828384399414
H 7.9669342041015625 5.67405366897583 1.7010180950164795
H 15.122060775756836 3.31618595123291 0.11937399953603745
H 12.753251075744629 2.2857370376586914 -2.0193235874176025
H 12.980812072753906 0.9314649105072021 1.1002740859985352
