17
Generated by QM7 dataset
C 4.240696430206299 6.5866780281066895 -3.3241982460021973
C 5.970986366271973 4.7522077560424805 -1.9658820629119873
O 8.377174377441406 5.9205498695373535 -1.6534159183502197
C 10.079081535339355 4.317513942718506 -0.31316542625427246
C 12.660995483398438 5.608518123626709 -0.14104916155338287
N 12.764211654663086 8.182476043701172 -0.13292333483695984
N 14.748178482055664 4.339132308959961 0.005083363503217697
H 2.379373073577881 5.745769023895264 -3.646547794342041
H 5.048686981201172 7.141785144805908 -5.1477274894714355
H 4.005274772644043 8.320841789245605 -2.2177069187164307
H 6.177892684936523 3.0240530967712402 -3.085639238357544
H 5.174183368682861 4.273161888122559 -0.11667168885469437
H 10.288764953613281 2.5085926055908203 -1.2977882623672485
H 9.389935493469238 3.9974889755249023 1.612276554107666
H 11.292247772216797 9.009533882141113 -1.0506688356399536
H 14.487547874450684 8.85023021697998 -0.6322078704833984
H 14.393383026123047 2.4352333545684814 -0.005650280974805355
