17
Generated by QM7 dataset
C 1.932849645614624 0.13795000314712524 0.06640497595071793
C 4.765378952026367 0.02834589220583439 -0.22119244933128357
N 5.964183330535889 2.1520957946777344 -0.5474536418914795
N 8.50442886352539 2.039581298828125 -0.7983903884887695
C 9.938523292541504 0.030821433290839195 0.4200294315814972
C 8.832958221435547 -2.457362174987793 -0.47691017389297485
C 6.020686149597168 -2.530154228210449 0.08809903264045715
H 1.1102896928787231 -1.7473353147506714 -0.11500873416662216
H 1.1286389827728271 1.3669711351394653 -1.3869266510009766
H 1.4742131233215332 0.8991128206253052 1.9320749044418335
H 9.29407024383545 3.766432046890259 -0.4477139115333557
H 11.931182861328125 0.15892596542835236 -0.12082909047603607
H 9.82198429107666 0.2031644582748413 2.4806811809539795
H 9.78874397277832 -4.052857875823975 0.4326150119304657
H 9.134255409240723 -2.659808397293091 -2.5196096897125244
H 5.7112250328063965 -3.126457452774048 2.04791522026062
H 5.0796027183532715 -3.9052703380584717 -1.1389379501342773
