17
Generated by QM7 dataset
C 1.889726161956787 0.0 0.0
C 4.618490695953369 0.0 0.0
C 6.86756706237793 0.0 0.0
C 9.596331596374512 0.0 0.0
C 10.72716236114502 2.6721861362457275 -0.044654227793216705
C 10.238554954528809 4.148497104644775 2.3811495304107666
O 13.400161743164062 2.503509283065796 -0.41539961099624634
H 1.1454007625579834 1.9292213916778564 0.02571917325258255
H 1.145079493522644 -0.9866260290145874 1.657894492149353
H 1.1449850797653198 -0.9422174692153931 -1.6834814548492432
H 10.296853065490723 -1.0463224649429321 -1.647671103477478
H 10.323214530944824 -1.0323195457458496 1.6445341110229492
H 9.96494197845459 3.735138177871704 -1.6504868268966675
H 11.00958251953125 3.1517608165740967 4.024927616119385
H 8.219703674316406 4.471073150634766 2.692368507385254
H 11.1878023147583 5.98661470413208 2.3053712844848633
H 14.13023853302002 1.7036069631576538 1.0696227550506592
