13
Generated by QM7 dataset
C 11.704925537109375 6.26893949508667 -0.6613096594810486
N 10.343321800231934 6.193747520446777 1.3620201349258423
N 8.767478942871094 4.191601753234863 1.367783784866333
C 8.573044776916504 3.334308385848999 3.9934637546539307
C 6.533482551574707 4.928273677825928 2.850273847579956
C 4.168036460876465 3.746381998062134 1.9770504236221313
O 2.3641228675842285 3.491042375564575 3.40498423576355
H 13.079853057861328 7.810861587524414 -0.913833737373352
H 11.584909439086914 4.858863830566406 -2.1959941387176514
H 9.808207511901855 4.179469585418701 5.3907084465026855
H 8.221593856811523 1.335620641708374 4.252394199371338
H 6.375255584716797 6.873576641082764 3.470236301422119
H 4.088309288024902 3.1309738159179688 -0.013738309033215046
