13
Generated by QM7 dataset
N 5.328044891357422 -1.3219201564788818 -2.5224063396453857
C 4.503104209899902 -0.07683626562356949 -0.18989858031272888
C 5.455733776092529 2.594839572906494 -0.09131156653165817
N 3.78810715675354 4.4649505615234375 0.22476401925086975
S 5.30325174331665 7.203106880187988 0.28309985995292664
C 8.26348876953125 5.955811977386475 -0.04480540752410889
C 8.0552978515625 3.366811752319336 -0.21988853812217712
H 4.570038318634033 -3.0889084339141846 -2.57741641998291
H 7.235572338104248 -1.5466463565826416 -2.4886748790740967
H 5.209218978881836 -1.1281476020812988 1.4477380514144897
H 2.4333815574645996 -0.11344026029109955 -0.11111589521169662
H 9.933175086975098 7.130012512207031 -0.09456189721822739
H 9.6448974609375 2.104228973388672 -0.44321635365486145
