13
Generated by QM7 dataset
C 1.8000775575637817 -0.22786317765712738 0.013398158363997936
C 4.653979778289795 0.11755986511707306 0.010412391275167465
C 5.405410289764404 2.835836410522461 -0.003911733161658049
N 5.710450172424316 4.0304646492004395 -2.213984251022339
S 6.531687259674072 6.990474700927734 -1.4477758407592773
N 6.507479667663574 6.771928310394287 1.7101832628250122
C 5.855429649353027 4.381840229034424 2.173525094985962
H 1.321447730064392 -2.2395334243774414 0.03169070556759834
H 0.943030059337616 0.6227970123291016 -1.6668329238891602
H 0.943030059337616 0.653127133846283 1.6779067516326904
H 5.460382461547852 -0.8459547758102417 -1.6394129991531372
H 5.4549970626831055 -0.8103334903717041 1.6823097467422485
H 5.7143049240112305 3.7940032482147217 4.124988555908203
