17
Generated by QM7 dataset
C 2.9481050968170166 -0.9476787447929382 1.655815839767456
C 5.721278190612793 -0.1678454726934433 1.6389027833938599
C 6.209847927093506 2.3875744342803955 0.3287367522716522
N 4.886510372161865 4.458298683166504 1.5968185663223267
C 8.94450855255127 3.1568820476531982 0.13369812071323395
C 10.982805252075195 1.9345881938934326 1.0112491846084595
H 2.7576773166656494 -2.8675460815429688 2.404789924621582
H 2.155780792236328 -0.9250587224960327 -0.25501853227615356
H 1.814571738243103 0.30076882243156433 2.8531651496887207
H 6.786951541900635 -1.650524616241455 0.6557727456092834
H 6.410064220428467 -0.12959742546081543 3.5945804119110107
H 5.48319149017334 2.267822504043579 -1.6097253561019897
H 5.357978343963623 4.444220066070557 3.464038133621216
H 2.989471197128296 4.1523895263671875 1.5226467847824097
H 9.262738227844238 4.9330735206604 -0.8612238168716431
H 10.859292030334473 0.15739528834819794 2.0233864784240723
H 12.85854721069336 2.719259262084961 0.7308515906333923
