17
Generated by QM7 dataset
C 1.418315052986145 -1.3973201513290405 -0.325391948223114
C 4.248311996459961 -1.4031217098236084 0.14399713277816772
C 5.381297588348389 1.2320069074630737 -0.10903719812631607
O 8.05391788482666 1.0425430536270142 0.34428921341896057
C 9.512956619262695 3.124643325805664 0.27376461029052734
N 11.93781566619873 2.587980031967163 0.8151522874832153
N 8.772297859191895 5.3604350090026855 -0.28805094957351685
H 0.6581160426139832 -3.312330961227417 -0.14688840508460999
H 0.9841504693031311 -0.7092331051826477 -2.2271745204925537
H 0.44315966963768005 -0.18908599019050598 1.0411823987960815
H 5.179777145385742 -2.689760684967041 -1.1871070861816406
H 4.647630214691162 -2.1531918048858643 2.0341956615448
H 4.537818431854248 2.5094239711761475 1.2853350639343262
H 5.062670707702637 1.9611200094223022 -2.0203628540039062
H 12.448929786682129 0.7875244617462158 0.4420825242996216
H 13.149300575256348 3.926926612854004 0.18672384321689606
H 6.884007930755615 5.405694007873535 -0.6466075778007507
