17
Generated by QM7 dataset
C -2.0591399669647217 -0.011565123684704304 -1.934909462928772
C -1.1644114255905151 1.9728929996490479 0.06468532234430313
C -1.9601751565933228 -0.06398613005876541 2.053130865097046
C -1.0500640869140625 -2.004772663116455 0.009391939267516136
C 1.7663270235061646 -2.2419333457946777 -0.06351369619369507
C 3.0721466541290283 -0.06400502473115921 -0.06733094155788422
C 1.7078211307525635 2.445343494415283 -0.0006803013966418803
H -4.1107401847839355 -0.06922066956758499 -2.2300658226013184
H -1.139164686203003 0.05364932492375374 -3.7856128215789795
H -2.2600369453430176 3.725954055786133 0.11485755443572998
H -0.9494739770889282 -0.04695969447493553 3.856968879699707
H -3.9946165084838867 -0.1308068484067917 2.4480457305908203
H -2.0150716304779053 -3.83117413520813 0.009316349402070045
H 2.6633799076080322 -4.082167625427246 -0.10984978079795837
H 5.122972011566162 -0.06547901034355164 -0.118126779794693
H 2.2082772254943848 3.5533275604248047 -1.6755634546279907
H 2.291557550430298 3.509561538696289 1.675620198249817
