15
Generated by QM7 dataset
O 2.0112922191619873 0.2515225410461426 -0.43299293518066406
C 4.664467811584473 0.006651835981756449 -0.13383039832115173
C 5.408226013183594 -2.451296091079712 1.231874704360962
C 6.10459041595459 -1.6119930744171143 3.861901044845581
C 6.429037094116211 -3.091686487197876 5.8777852058410645
C 6.29702091217041 1.1018426418304443 3.8487863540649414
C 5.517716884613037 2.030095100402832 1.6351044178009033
H 1.3799536228179932 -1.3344300985336304 -1.100803256034851
H 5.569023132324219 0.1535213440656662 -1.9864989519119263
H 7.084677696228027 -3.273005723953247 0.3263179063796997
H 3.8867509365081787 -3.8510539531707764 1.241002082824707
H 6.2131171226501465 -5.127960681915283 5.74146032333374
H 6.890564918518066 -2.31742787361145 7.72149658203125
H 6.912958145141602 2.219728946685791 5.442165374755859
H 5.413025856018066 4.018086910247803 1.182703971862793
