17
Generated by QM7 dataset
C 9.011064529418945 -3.2569618225097656 -0.6156349778175354
N 7.985396862030029 -0.8949176073074341 0.37240833044052124
N 8.877309799194336 1.227584958076477 -0.7491819262504578
C 8.494791030883789 3.2475509643554688 0.5815632343292236
C 9.29684829711914 5.803027629852295 -0.2692103981971741
C 10.515003204345703 6.028302192687988 -2.807509422302246
C 8.883753776550293 7.756097316741943 1.2927805185317993
H 8.214166641235352 -4.855443477630615 0.42636001110076904
H 11.066765785217285 -3.3106112480163574 -0.3872048854827881
H 8.552617073059082 -3.487584114074707 -2.6195762157440186
H 6.059255599975586 -0.9718672633171082 0.2142193615436554
H 7.554444789886475 3.1619842052459717 2.447535514831543
H 9.233542442321777 5.3638176918029785 -4.289867401123047
H 12.252681732177734 4.90797758102417 -2.8840999603271484
H 11.013872146606445 7.98866605758667 -3.2460203170776367
H 8.001591682434082 7.526514530181885 3.1305203437805176
H 9.438048362731934 9.660809516906738 0.7674933671951294
