19
Generated by QM7 dataset
C 5.866730213165283 -2.1479005813598633 -0.9755899906158447
C 4.616581916809082 0.15913383662700653 0.2200019210577011
N 3.8364086151123047 -0.39508503675460815 2.8083786964416504
C 6.40516996383667 2.362441062927246 0.31989285349845886
C 6.681353569030762 4.073323726654053 -1.9455108642578125
C 5.398380756378174 5.027597427368164 0.3996392786502838
N 6.672660827636719 6.930135726928711 1.9443581104278564
H 6.44978666305542 -1.7342584133148193 -2.91839861869812
H 4.564671039581299 -3.7560386657714844 -1.0314502716064453
H 7.560189723968506 -2.725703239440918 0.06765219569206238
H 2.929623603820801 0.6500279903411865 -0.878798246383667
H 5.353518486022949 -1.0048052072525024 3.8245222568511963
H 2.590984582901001 -1.863761305809021 2.794564723968506
H 8.110629081726074 1.937781810760498 1.3735474348068237
H 5.505943775177002 3.7398436069488525 -3.5902340412139893
H 8.549253463745117 4.779778957366943 -2.397911310195923
H 3.359347343444824 5.2628493309021 0.2948917746543884
H 8.560667037963867 6.579232692718506 2.0734264850616455
H 6.005436420440674 6.847762584686279 3.752825975418091
