18
Generated by QM7 dataset
N 2.6578619480133057 -1.265738606452942 -0.9322963953018188
C 4.480049133300781 -0.2759000062942505 0.9055567383766174
C 5.017468452453613 2.534897565841675 0.4645513892173767
O 6.210187911987305 2.837367057800293 -1.9443392753601074
C 6.859403610229492 5.425365924835205 -2.479679822921753
C 9.632765769958496 6.030947685241699 -2.4318130016326904
C 8.271634101867676 5.816784858703613 -4.911624908447266
H 2.6932942867279053 -3.189800977706909 -0.8865083456039429
H 3.2693395614624023 -0.7586872577667236 -2.6949384212493896
H 6.2426533699035645 -1.3487920761108398 0.7205714583396912
H 3.7376325130462646 -0.5616832971572876 2.8130273818969727
H 6.286891937255859 3.238877296447754 1.9419203996658325
H 3.2598719596862793 3.6308820247650146 0.5107929706573486
H 5.536311626434326 6.899957180023193 -1.9492714405059814
H 10.938302040100098 4.537062168121338 -1.9281253814697266
H 10.194486618041992 7.894954681396484 -1.8024964332580566
H 7.900302410125732 7.5336198806762695 -5.961688995361328
H 8.641547203063965 4.175841331481934 -6.078568458557129
