16
Generated by QM7 dataset
C 1.8929765224456787 0.06638608127832413 -0.039759837090969086
C 4.770613670349121 0.01787680946290493 0.0021542878821492195
C 5.8411054611206055 2.526318073272705 0.8965616822242737
C 7.249783039093018 2.16294264793396 2.9813642501831055
C 7.3492584228515625 -0.47770386934280396 3.8245222568511963
N 8.480562210083008 -2.3781826496124268 2.198110580444336
C 5.774984359741211 -1.9106831550598145 1.8988535404205322
H 1.1459299325942993 -1.7645695209503174 -0.6503870487213135
H 1.1932297945022583 1.5116486549377441 -1.3452394008636475
H 1.1090235710144043 0.4612065553665161 1.8360579013824463
H 5.493981838226318 -0.4167413115501404 -1.8900096416473389
H 5.531549453735352 4.31619119644165 -0.03365602344274521
H 8.231382369995117 3.6551461219787598 3.977287769317627
H 7.0968098640441895 -0.9016828536987305 5.808451175689697
H 9.494078636169434 -1.5395410060882568 0.7866929769515991
H 4.48847770690918 -3.3690037727355957 2.514582872390747
