15
Generated by QM7 dataset
O 4.018502712249756 -0.6362897157669067 -2.5918161869049072
C 4.341268062591553 0.12252984195947647 -0.03894725441932678
C 5.942205905914307 2.5002589225769043 -0.00529123330488801
C 4.7090654373168945 4.913665771484375 -1.1521093845367432
C 5.682368755340576 6.3296942710876465 1.1999950408935547
O 5.965865612030029 8.538217544555664 1.7359402179718018
C 6.178024768829346 3.828944206237793 2.6069529056549072
H 3.0476558208465576 -2.1982429027557373 -2.5797595977783203
H 5.280216217041016 -1.405049204826355 0.9913692474365234
H 2.4756546020507812 0.4443313181400299 0.7948755025863647
H 7.813601970672607 2.134237766265869 -0.8336715698242188
H 2.6457676887512207 4.898245811462402 -1.2781729698181152
H 5.525653839111328 5.552468776702881 -2.936464309692383
H 8.037137985229492 3.697324752807617 3.492856502532959
H 4.702035427093506 3.379794120788574 3.982654571533203
