18
Generated by QM7 dataset
C 1.7613003253936768 0.04968089982867241 -0.7542464137077332
N 4.313035488128662 -0.004629828967154026 0.29062098264694214
C 5.778347969055176 2.2546701431274414 -0.40587538480758667
C 6.637701034545898 2.3591530323028564 -3.185511350631714
C 7.581165313720703 -0.14369477331638336 -4.1163716316223145
C 7.136569499969482 -2.264666795730591 -2.809417963027954
C 5.6662492752075195 -2.3379502296447754 -0.377623975276947
H 0.7639595866203308 1.7516816854476929 -0.12343691289424896
H 0.6610639691352844 -1.553600549697876 -0.03977873548865318
H 1.720860242843628 -0.004629828967154026 -2.8208696842193604
H 7.457841873168945 2.323474884033203 0.8112972378730774
H 4.709197521209717 3.972450017929077 0.04654395580291748
H 8.145777702331543 3.7671689987182617 -3.3658289909362793
H 5.076106548309326 2.969836950302124 -4.401360988616943
H 8.655097007751465 -0.19590790569782257 -5.865293979644775
H 7.885354518890381 -4.049966335296631 -3.4904754161834717
H 4.352530479431152 -3.9415340423583984 -0.43730151653289795
H 7.000792980194092 -2.767825126647949 1.149369239807129
