20
Generated by QM7 dataset
C 1.9453219175338745 -0.05846812576055527 0.005914842709898949
C 4.812414169311523 0.012283219955861568 0.1045207530260086
C 5.833641052246094 2.1676104068756104 1.7030023336410522
C 8.496662139892578 1.2778328657150269 2.265479326248169
C 8.18559455871582 -1.5676223039627075 2.621239185333252
C 10.4590482711792 -3.061091661453247 1.685314416885376
N 5.833735942840576 -2.2687296867370605 1.3087109327316284
H 1.2844090461730957 -1.6507891416549683 -1.1404308080673218
H 1.2043224573135376 1.6814216375350952 -0.8324621319770813
H 1.1207399368286133 -0.2520894706249237 1.896529197692871
H 5.5700812339782715 0.1594739854335785 -1.8208645582199097
H 4.764037609100342 2.3840596675872803 3.465682029724121
H 5.813288688659668 3.9764750003814697 0.7012773752212524
H 9.72978401184082 1.7065927982330322 0.6548089981079102
H 9.28016185760498 2.1990554332733154 3.9424221515655518
H 7.9109416007995605 -1.9724961519241333 4.6352338790893555
H 10.78504467010498 -2.7630441188812256 -0.33589881658554077
H 10.186115264892578 -5.089315891265869 1.9948327541351318
H 12.168967247009277 -2.4883534908294678 2.6997005939483643
H 6.133559703826904 -3.6425793170928955 -0.006349479779601097
