15
Generated by QM7 dataset
C -3.0487897396087646 1.6327611207962036 0.9298019409179688
C -2.1177403926849365 -0.6774668097496033 -0.44648557901382446
C -0.4064422845840454 -2.575375556945801 0.7243698239326477
O 1.9733842611312866 -2.3623087406158447 -0.5134952664375305
C 3.1682958602905273 -0.017895705997943878 0.08734314143657684
O 1.561386227607727 2.1518123149871826 0.246306911110878
C -0.8855067491531372 1.8355287313461304 -0.9004167318344116
H -4.847412109375 2.4275989532470703 0.362714022397995
H -2.6422905921936035 1.8231511116027832 2.927488088607788
H -3.2344741821289062 -1.4542953968048096 -1.9731953144073486
H -0.18345461785793304 -2.3144798278808594 2.767711877822876
H -1.1308499574661255 -4.485189437866211 0.40425020456314087
H 4.14203405380249 -0.22134362161159515 1.9021227359771729
H 4.600387096405029 0.34774741530418396 -1.3575226068496704
H -1.2228984832763672 2.755674123764038 -2.699908494949341
