17
Generated by QM7 dataset
C 1.889726161956787 0.0 0.0
C 4.618490695953369 0.0 0.0
C 6.86756706237793 0.0 0.0
C 9.596331596374512 0.0 0.0
C 10.330490112304688 2.7300684452056885 0.162006214261055
C 10.66691780090332 4.017444610595703 2.6855275630950928
C 12.936668395996094 3.4384512901306152 1.079921841621399
H 1.1453441381454468 1.929240345954895 0.02250663749873638
H 1.145079493522644 -0.9839048385620117 1.6595008373260498
H 1.1450039148330688 -0.945014238357544 -1.681912899017334
H 10.34498405456543 -0.8223521113395691 -1.7443684339523315
H 10.346610069274902 -1.090768814086914 1.5907903909683228
H 9.583273887634277 3.8385438919067383 -1.3959596157073975
H 10.387011528015137 2.9177560806274414 4.391610145568848
H 10.06934928894043 5.971081256866455 2.844926118850708
H 13.883345603942871 5.004901885986328 0.15739528834819794
H 14.200214385986328 1.9530130624771118 1.7081234455108643
