15
Generated by QM7 dataset
N 3.8311173915863037 -2.738288640975952 -1.8294627666473389
C 4.5161051750183105 -0.29731062054634094 -1.372338056564331
N 4.235896587371826 1.4507994651794434 -3.048166036605835
C 5.72023868560791 0.355722039937973 1.1455520391464233
C 8.466974258422852 -0.2975940704345703 1.152430534362793
C 9.797398567199707 -1.0617992877960205 3.5467891693115234
O 9.010762214660645 -2.8940021991729736 1.704041600227356
H 4.73457670211792 -4.04667854309082 -0.7465741038322449
H 3.7349870204925537 -3.261931896209717 -3.665161609649658
H 3.378622531890869 0.7139952182769775 -4.612368106842041
H 4.7022624015808105 -0.6580215096473694 2.6415536403656006
H 5.49069356918335 2.383228063583374 1.5022377967834473
H 9.534821510314941 0.6363463997840881 -0.3195904791355133
H 8.775056838989258 -0.9975864291191101 5.316593170166016
H 11.802322387695312 -0.6793754696846008 3.7012176513671875
