19
Generated by QM7 dataset
C 1.793784737586975 -0.2824006676673889 -0.0522698238492012
C 4.615088939666748 0.30507737398147583 -0.11929841339588165
C 5.36878776550293 3.0675923824310303 0.017857911065220833
C 3.737746000289917 4.999856472015381 0.2689647078514099
C 8.19842529296875 3.5774593353271484 -0.06736873835325241
C 9.308450698852539 3.440227508544922 -2.736361265182495
O 8.423076629638672 5.4717020988464355 -4.260538578033447
H 1.495529294013977 -2.3285584449768066 -0.15529769659042358
H 0.8097098469734192 0.5778971314430237 -1.6558536291122437
H 0.9234336018562317 0.39015287160873413 1.6990338563919067
H 5.387269020080566 -0.5101315975189209 -1.8607566356658936
H 5.512406826019287 -0.6922444701194763 1.4605693817138672
H 1.7069896459579468 4.731080532073975 0.37065088748931885
H 4.3953704833984375 6.942079067230225 0.38680803775787354
H 9.163640975952148 2.2085230350494385 1.1541880369186401
H 8.594209671020508 5.452351093292236 0.7238218188285828
H 8.854331016540527 1.6574598550796509 -3.682490348815918
H 11.368195533752441 3.5964133739471436 -2.639361619949341
H 6.584901809692383 5.389366626739502 -4.244570732116699
