18
Generated by QM7 dataset
C 3.7049782276153564 1.225676417350769 -5.372585773468018
C 6.14019250869751 1.2454618215560913 -3.937150001525879
C 6.43153190612793 2.3641796112060547 -1.6749587059020996
C 8.770049095153809 2.48769211769104 -0.054443009197711945
N 10.926850318908691 1.045169711112976 -1.0552797317504883
C 9.621843338012695 5.247486114501953 0.3801562190055847
O 11.899378776550293 5.286111831665039 1.832750916481018
H 3.9533259868621826 2.1755661964416504 -7.1922221183776855
H 2.1817643642425537 2.179232120513916 -4.348052024841309
H 3.1164796352386475 -0.7241052389144897 -5.730745792388916
H 7.704678058624268 0.2767881751060486 -4.847525596618652
H 4.795406818389893 3.302938938140869 -0.8441406488418579
H 8.321956634521484 1.6577244997024536 1.7914226055145264
H 11.351584434509277 1.7069706916809082 -2.814652681350708
H 10.373726844787598 -0.7871654033660889 -1.2813477516174316
H 8.18391227722168 6.321493148803711 1.4085451364517212
H 9.998163223266602 6.212493419647217 -1.4128915071487427
H 12.807146072387695 3.761651039123535 1.2996402978897095
