20
Generated by QM7 dataset
C 1.5731592178344727 0.01695084385573864 -0.1534646600484848
C 4.429102420806885 -0.4275883436203003 -0.2519949674606323
C 5.028466701507568 -2.5055878162384033 -2.169311046600342
N 5.669802188873291 1.971097707748413 -0.9024009108543396
C 8.436323165893555 1.876460313796997 -0.7630147337913513
C 9.92843246459961 1.6939127445220947 -3.172283172607422
C 9.910517692565918 4.1175432205200195 -1.7037960290908813
H 1.089616060256958 1.4522355794906616 1.2581229209899902
H 0.579919159412384 -1.7239404916763306 0.36311087012290955
H 0.839737594127655 0.6470233201980591 -1.9850060939788818
H 5.046116828918457 -1.0409178733825684 1.6302289962768555
H 4.517617225646973 -1.9333598613739014 -4.092371940612793
H 3.978383779525757 -4.23287296295166 -1.7226554155349731
H 7.039437770843506 -2.992192268371582 -2.1545333862304688
H 5.009437084197998 3.355473279953003 0.26686713099479675
H 9.210846900939941 0.9414426684379578 0.8974687457084656
H 8.903388023376465 1.6418696641921997 -4.945016384124756
H 11.63460922241211 0.5642344355583191 -3.154973268508911
H 11.613103866577148 4.6371989250183105 -0.6925846338272095
H 8.885416984558105 5.703042507171631 -2.4970085620880127
