17
Generated by QM7 dataset
C 2.846740245819092 -0.7797954678535461 1.1753151416778564
N 5.563107967376709 -0.630544900894165 0.7284516096115112
C 6.321322917938232 1.9727228879928589 0.14962852001190186
C 9.184578895568848 2.1611664295196533 -0.2632766366004944
C 10.72026538848877 1.4898600578308105 2.084613561630249
O 10.454626083374023 -1.1106675863265991 2.706068992614746
H 2.3277647495269775 -2.734112501144409 1.6115206480026245
H 1.7703899145126343 -0.19159933924674988 -0.4918579161167145
H 2.2879292964935303 0.3881497383117676 2.7903506755828857
H 5.997612953186035 -1.756632685661316 -0.7821765542030334
H 5.780369758605957 3.2349088191986084 1.7002999782562256
H 5.357827186584473 2.6248295307159424 -1.5651090145111084
H 9.641703605651855 4.102160930633545 -0.8286638259887695
H 9.730729103088379 0.915534496307373 -1.8302375078201294
H 10.131105422973633 2.6202375888824463 3.712385892868042
H 12.726964950561523 1.85051429271698 1.7454832792282104
H 8.632987022399902 -1.463932991027832 2.625131845474243
