18
Generated by QM7 dataset
C 1.7821251153945923 -0.01602487824857235 0.09257768094539642
C 4.644512176513672 0.01746106892824173 0.01921851560473442
C 5.973443031311035 1.9835699796676636 1.7340883016586304
C 8.003670692443848 -0.04359598085284233 2.318183660507202
C 10.381928443908691 0.05077693983912468 0.7059072256088257
C 6.018437385559082 -2.058138608932495 1.5602712631225586
H 1.0481555461883545 -1.6424554586410522 -0.9550297856330872
H 1.0127798318862915 1.697049617767334 -0.7734271287918091
H 1.0665614604949951 -0.12942734360694885 2.0311343669891357
H 5.317651748657227 0.11075685173273087 -1.9405975341796875
H 4.8760223388671875 2.5426831245422363 3.400977849960327
H 6.6358489990234375 3.6922225952148438 0.7790396213531494
H 8.516182899475098 -0.12330462783575058 4.325639724731445
H 9.948690414428711 0.121396005153656 -1.3154006004333496
H 11.553313255310059 -1.6195330619812012 1.0488169193267822
H 11.507204055786133 1.7217861413955688 1.1757875680923462
H 6.717730522155762 -3.6637253761291504 0.4632285535335541
H 4.93604040145874 -2.7823572158813477 3.172377824783325
