16
Generated by QM7 dataset
O 1.904995083808899 -0.14730414748191833 -0.1804499477148056
C 4.587064743041992 0.13022102415561676 -0.05952637270092964
C 6.332850456237793 -1.1074551343917847 -2.039562463760376
N 8.357181549072266 -0.6510295271873474 -0.001927520614117384
C 6.214156627655029 -1.4221134185791016 1.79792320728302
C 8.38847541809082 2.1582562923431396 0.22480182349681854
C 5.5735015869140625 2.8015756607055664 0.175442174077034
H 1.2818012237548828 0.46190574765205383 1.4370989799499512
H 6.630954742431641 -0.08528333902359009 -3.815394878387451
H 5.978224277496338 -3.1024956703186035 -2.480492353439331
H 5.842126369476318 -3.4605231285095215 1.8866081237792969
H 6.391280651092529 -0.7023733854293823 3.731320858001709
H 9.289175987243652 2.7519514560699463 1.991884708404541
H 9.408965110778809 3.0215020179748535 -1.3558406829833984
H 5.068490982055664 3.97505784034729 -1.4507427215576172
H 4.953709125518799 3.720643997192383 1.9214357137680054
