14
Generated by QM7 dataset
C 1.8714336156845093 -0.05723980441689491 0.09431622922420502
C 4.686237335205078 0.10312235355377197 -0.4250372052192688
O 5.497572422027588 -2.1403415203094482 -1.690605640411377
N 6.430605888366699 -1.3493211269378662 -4.055560111999512
C 6.196638584136963 1.076520323753357 -4.0584516525268555
C 6.885557174682617 2.7702250480651855 -6.181728839874268
O 5.196293354034424 2.195521593093872 -2.0094213485717773
H 1.2013933658599854 1.647652268409729 1.0539947748184204
H 1.4238141775131226 -1.7151910066604614 1.2458208799362183
H 0.8101255893707275 -0.22659705579280853 -1.6761682033538818
H 5.752420902252197 0.300126314163208 1.3379261493682861
H 6.918117523193359 4.739508628845215 -5.557854652404785
H 5.496381759643555 2.5627331733703613 -7.696476459503174
H 8.758087158203125 2.2658004760742188 -6.893078327178955
