19
Generated by QM7 dataset
C 5.0701727867126465 -1.8881198167800903 -1.0087547302246094
C 4.232325077056885 0.6601758003234863 0.02666403539478779
N 6.347382068634033 2.4467039108276367 -0.10813012719154358
C 6.046329975128174 4.411338806152344 -2.0271847248077393
C 5.628889560699463 4.986212253570557 0.7373522520065308
C 7.506558895111084 6.505552291870117 2.2077858448028564
N 6.705674171447754 9.143590927124023 2.208787441253662
H 3.5211644172668457 -3.2516517639160156 -0.875207781791687
H 6.670072078704834 -2.6414403915405273 0.06763330101966858
H 5.630155563354492 -1.746390461921692 -2.994081974029541
H 3.6720025539398193 0.4156641662120819 2.0068135261535645
H 2.550922393798828 1.294934868812561 -1.007904291152954
H 4.420125961303711 4.349185943603516 -3.2660703659057617
H 7.776355266571045 5.04717493057251 -2.91450572013855
H 3.710949659347534 5.253571033477783 1.4122868776321411
H 9.411157608032227 6.356225967407227 1.41355299949646
H 7.575326442718506 5.813137531280518 4.156754970550537
H 6.830774307250977 9.837554931640625 0.41606101393699646
H 7.957032203674316 10.165271759033203 3.260930299758911
