17
Generated by QM7 dataset
C 1.6734470129013062 0.30080661177635193 -0.3029231131076813
C 4.381916046142578 -0.4022659957408905 0.008050233125686646
C 5.7002644538879395 -1.9367047548294067 -1.9854785203933716
C 6.378033638000488 0.8032280802726746 -1.626619577407837
N 8.78845500946045 1.5616885423660278 -0.5169156789779663
C 10.925753593444824 1.626619577407837 -1.958568811416626
N 11.37148380279541 0.5167645215988159 -4.071414947509766
H 1.234217882156372 1.9622915983200073 0.8497153520584106
H 0.4580318331718445 -1.2538710832595825 0.31998732686042786
H 1.1996926069259644 0.7392797470092773 -2.2695233821868896
H 4.838057994842529 -0.8138861656188965 1.961762547492981
H 4.6689276695251465 -2.4484424591064453 -3.6799392700195312
H 7.044785499572754 -3.353564739227295 -1.3680294752120972
H 5.740213394165039 2.1187987327575684 -3.0722410678863525
H 8.726906776428223 2.8417513370513916 0.9136070013046265
H 12.415217399597168 2.806413412094116 -1.1018426418304443
H 9.823609352111816 -0.5303138494491577 -4.562535762786865
