15
Generated by QM7 dataset
C 1.059682846069336 2.350592613220215 1.2676283121109009
C -1.6123710870742798 1.461230754852295 0.7926645278930664
C -1.6257691383361816 0.022223180159926414 -1.6254290342330933
C 1.0327163934707642 -0.04208420217037201 -2.6593549251556396
C 2.3466429710388184 0.04843368008732796 -0.03609376773238182
O 1.102485179901123 -2.0567591190338135 1.2802516222000122
C -1.5376701354980469 -1.3732829093933105 0.8353345394134521
H 1.4860239028930664 4.146701812744141 0.3416813910007477
H 1.4615708589553833 2.431605100631714 3.293112277984619
H -3.1879680156707764 2.5275275707244873 1.4867987632751465
H -3.214367389678955 -0.08237316459417343 -2.8776750564575195
H 1.395751714706421 -1.8149118423461914 -3.660229444503784
H 1.4731926918029785 1.5933226346969604 -3.841813325881958
H 4.40296745300293 -0.06005549803376198 0.018746083602309227
H -3.1032326221466064 -2.4836103916168213 1.5176957845687866
