20
Generated by QM7 dataset
C 1.9749528169631958 -0.053346969187259674 -0.05557684600353241
C 4.850284576416016 0.012944623827934265 0.042953476309776306
C 5.812230587005615 2.1448957920074463 1.7211815118789673
C 8.478577613830566 1.298714280128479 2.3186182975769043
C 8.262903213500977 -1.5606681108474731 2.5220284461975098
N 5.905526638031006 -2.2702414989471436 1.2319124937057495
C 6.298759460449219 -4.3150763511657715 -0.5747979879379272
H 1.2998102903366089 -1.5844030380249023 -1.2719368934631348
H 1.2336888313293457 1.7266616821289062 -0.8075366616249084
H 1.1555864810943604 -0.3312689960002899 1.8267793655395508
H 5.6136393547058105 0.2767314910888672 -1.8695249557495117
H 4.706740856170654 2.2998156547546387 3.468592405319214
H 5.776552677154541 3.9793286323547363 0.766189455986023
H 9.73789119720459 1.7984901666641235 0.7498244047164917
H 9.212849617004395 2.168196201324463 4.043787002563477
H 9.956097602844238 -2.4697208404541016 1.7491494417190552
H 8.108134269714355 -2.1204049587249756 4.510190486907959
H 4.517806053161621 -4.858353614807129 -1.4775580167770386
H 7.017252445220947 -6.0000128746032715 0.3896048367023468
H 7.646266460418701 -3.7943811416625977 -2.0601983070373535
