14
Generated by QM7 dataset
C 3.151534080505371 -3.294189453125 3.1278936862945557
C 3.041419744491577 -1.6244086027145386 0.8180057406425476
O 1.2690644264221191 -1.7739803791046143 -0.6833816766738892
C 5.095344066619873 0.3482387363910675 0.549815833568573
O 7.488304138183594 -0.8679323196411133 0.7008994221687317
N 9.331221580505371 0.9459213018417358 1.2787777185440063
C 11.517352104187012 -0.13280995190143585 1.2649827003479004
H 4.953350067138672 -4.29933500289917 3.195451259613037
H 1.6293785572052002 -4.690281391143799 3.047334671020508
H 2.915734052658081 -2.1384518146514893 4.823110103607178
H 4.858240127563477 1.7424975633621216 2.0625226497650146
H 4.920714378356934 1.2766045331954956 -1.2904561758041382
H 13.224397659301758 0.9745506644248962 1.6938560009002686
H 11.78300952911377 -2.1563098430633545 0.8355991244316101
