14
Generated by QM7 dataset
C 1.5734237432479858 0.2502753436565399 -0.00729434285312891
C 4.3843913078308105 0.11582131683826447 -0.002097595948725939
C 6.106253147125244 2.07132887840271 0.019029542803764343
C 8.65048599243164 1.182137131690979 -0.0025322330184280872
C 8.794577598571777 -1.4131561517715454 -0.047602202743291855
N 10.905325889587402 -2.830639600753784 -0.10446406155824661
S 5.861042499542236 -2.75985050201416 -0.03316469490528107
H 0.9276665449142456 2.2164976596832275 0.009202966466546059
H 0.7887716889381409 -0.6873123049736023 1.6618818044662476
H 0.7986549735069275 -0.6542232036590576 -1.6996574401855469
H 5.576449394226074 4.04824686050415 0.03921181708574295
H 10.29188346862793 2.4023900032043457 -0.0020598014816641808
H 10.787785530090332 -4.7288126945495605 0.1407468020915985
H 12.640094757080078 -2.0735397338867188 0.1907111555337906
