12
Generated by QM7 dataset
C 1.7788559198379517 -0.06341920793056488 0.012302117422223091
C 4.6008405685424805 -0.004006219562143087 0.017347685992717743
C 5.931888103485107 2.150489330291748 0.0
C 8.58884334564209 2.150489330291748 0.0
C 10.837919235229492 2.150489330291748 0.0
C 13.733622550964355 2.1472392082214355 1.8897260815720074e-05
N 15.929484367370605 2.1465020179748535 1.8897260815720074e-05
H 1.115883231163025 -2.02217698097229 -0.04520224779844284
H 1.0206599235534668 0.9078244566917419 -1.6486915349960327
H 1.0206221342086792 0.811070442199707 1.725962519645691
H 5.564449787139893 -1.8203164339065552 0.0337505079805851
H 4.967144966125488 3.963681697845459 -0.015420164912939072
