16
Generated by QM7 dataset
N 4.349034786224365 -0.9104889631271362 -2.6166281700134277
C 4.453347682952881 0.20225739479064941 -0.08586915582418442
C 6.599717140197754 2.1295323371887207 0.17315560579299927
O 6.147165775299072 4.422733783721924 -1.2811208963394165
C 5.692346572875977 5.843278884887695 1.0089058876037598
C 6.6354899406433105 3.6542580127716064 2.660620927810669
O 9.062560081481934 3.9801411628723145 3.878946304321289
H 2.950977325439453 -2.231464147567749 -2.6873795986175537
H 5.995364189147949 -1.8286502361297607 -3.005779504776001
H 4.721197128295898 -1.3152116537094116 1.2967300415039062
H 2.6289870738983154 1.0933388471603394 0.3196849822998047
H 8.446093559265137 1.3188587427139282 -0.3113323748111725
H 6.831964492797852 7.565688610076904 1.0742148160934448
H 3.691863536834717 6.320340156555176 1.2226905822753906
H 5.238415241241455 3.03529691696167 4.05637264251709
H 10.181069374084473 4.591335296630859 2.5488247871398926
