18
Generated by QM7 dataset
C 5.044907569885254 -1.8811089992523193 2.649188280105591
C 4.588349342346191 -0.4131697118282318 0.2591192424297333
C 3.106123924255371 -1.3016622066497803 -1.5979145765304565
C 5.835361003875732 2.0453639030456543 0.05049348250031471
C 4.450531959533691 4.160118579864502 -0.2437179833650589
C 8.69731330871582 2.0083253383636475 0.15044109523296356
N 9.897194862365723 4.207002639770508 -1.0185624361038208
H 7.028345108032227 -2.4496142864227295 2.8012733459472656
H 3.897484540939331 -3.6039533615112305 2.721526861190796
H 4.5554118156433105 -0.7430025339126587 4.307290554046631
H 2.175074815750122 -3.1228857040405273 -1.4494388103485107
H 2.7888011932373047 -0.23727400600910187 -3.3251242637634277
H 2.4012184143066406 4.114538669586182 -0.3027719259262085
H 5.340498447418213 6.0026960372924805 -0.387790709733963
H 9.409796714782715 0.3180409073829651 -0.816720724105835
H 9.30512523651123 1.8948472738265991 2.126225471496582
H 9.404014587402344 4.2318525314331055 -2.882002353668213
H 11.805874824523926 3.961754083633423 -0.9808056354522705
