15
Generated by QM7 dataset
C 1.8890080451965332 0.06105704978108406 0.05387609079480171
C 4.6905837059021 -0.04393613338470459 -0.0345630906522274
C 6.16375732421875 -2.0845947265625 -0.1671084761619568
C 8.868257522583008 -1.342801570892334 -0.14872144162654877
N 8.883753776550293 1.4369666576385498 -0.3540402054786682
C 6.262457847595215 2.2861528396606445 0.08258102834224701
H 1.0556577444076538 -1.830275297164917 -0.03777562454342842
H 1.1583454608917236 1.1563234329223633 -1.5410150289535522
H 1.2550048828125 0.9533290266990662 1.8084300756454468
H 5.5179057121276855 -4.02078914642334 -0.22538763284683228
H 9.775005340576172 -1.9314135313034058 1.6150922775268555
H 9.890486717224121 -2.1891720294952393 -1.7353732585906982
H 9.336834907531738 1.8786712884902954 -2.1726369857788086
H 5.70665168762207 3.655675172805786 -1.3652325868606567
H 6.11379337310791 3.1816751956939697 1.942090392112732
