20
Generated by QM7 dataset
C 1.772544264793396 -0.45500826835632324 0.29906806349754333
C 4.61816930770874 -0.05920511856675148 -0.09219973534345627
C 5.634785175323486 -2.195956230163574 -1.7647207975387573
C 5.217685222625732 2.5778698921203613 -1.2162843942642212
N 4.2855963706970215 4.663617134094238 0.40262505412101746
C 8.072569847106934 3.0170421600341797 -1.6398476362228394
O 8.484511375427246 5.590301036834717 -2.3454713821411133
H 1.010323166847229 0.8595608472824097 1.700451135635376
H 1.3851503133773804 -2.366258382797241 0.9908968210220337
H 0.7324578762054443 -0.19356465339660645 -1.4703013896942139
H 5.538182735443115 -0.2243104875087738 1.7618483304977417
H 4.89204740524292 -2.0552093982696533 -3.691542148590088
H 5.096138000488281 -4.045034408569336 -1.0062791109085083
H 7.700199127197266 -2.163377285003662 -1.8608511686325073
H 4.264904022216797 2.7890846729278564 -3.046351909637451
H 4.865780353546143 4.364171504974365 2.2191810607910156
H 2.359682083129883 4.616412162780762 0.45583972334861755
H 8.810091972351074 1.8274974822998047 -3.1585450172424316
H 9.154268264770508 2.6493771076202393 0.08473531901836395
H 7.149192810058594 6.515926837921143 -1.4513474702835083
