13
Generated by QM7 dataset
C 4.159740924835205 -1.3383229970932007 3.125701427459717
C 3.8503925800323486 -0.6887106895446777 0.3855230212211609
O 2.6502842903137207 -1.9619325399398804 -1.1281287670135498
C 5.105302810668945 1.6783791780471802 -0.5518945455551147
N 6.346475124359131 3.1156671047210693 0.9844339489936829
N 7.341888427734375 5.186202049255371 -0.29224613308906555
C 8.559948921203613 6.6453351974487305 1.2361643314361572
H 3.358458995819092 0.15883147716522217 4.301092147827148
H 6.159449100494385 -1.6115018129348755 3.563683271408081
H 3.152970314025879 -3.0986218452453613 3.5285723209381104
H 4.874586582183838 2.056154251098633 -2.5889058113098145
H 9.465638160705566 8.373924255371094 0.5160275101661682
H 8.75238037109375 6.253727436065674 3.2750842571258545
