19
Generated by QM7 dataset
C 1.8588669300079346 -0.23884248733520508 -0.5457528829574585
C 4.653034687042236 -0.21197058260440826 0.14560340344905853
C 5.799871921539307 2.4454379081726074 -0.0061227125115692616
O 4.499740123748779 4.088290214538574 1.6784358024597168
C 8.587085723876953 2.393073558807373 0.5919567346572876
C 9.799004554748535 3.7654683589935303 2.3511404991149902
C 12.579339981079102 3.625741958618164 2.8254051208496094
H 1.1267303228378296 -2.1729960441589355 -0.47698578238487244
H 1.561934232711792 0.4916122555732727 -2.458477020263672
H 0.7452701926231384 0.9057268500328064 0.7695153951644897
H 5.669064998626709 -1.4996867179870605 -1.1210800409317017
H 4.845673561096191 -0.959886372089386 2.0700058937072754
H 5.557646751403809 3.2001190185546875 -1.9191303253173828
H 4.689752101898193 3.379737377166748 3.3620307445526123
H 9.692442893981934 1.1131054162979126 -0.5827159285545349
H 8.759939193725586 5.106210231781006 3.513360023498535
H 13.524675369262695 2.2947323322296143 1.5560004711151123
H 12.930753707885742 3.0227115154266357 4.771804332733154
H 13.433061599731445 5.489711284637451 2.557328701019287
