13
Generated by QM7 dataset
C 1.6769996881484985 -1.0232677459716797 -0.4848470389842987
C 4.314527988433838 -0.1087537407875061 0.17557445168495178
N 4.412227153778076 2.614511728286743 0.40610215067863464
C 3.769890308380127 3.841888904571533 2.620124101638794
O 3.146583080291748 2.7497971057891846 4.566258430480957
C 3.857422351837158 6.598337650299072 2.5438737869262695
N 3.9578423500061035 8.78750991821289 2.3709826469421387
H 1.6577811241149902 -3.0808961391448975 -0.6898823380470276
H 1.029787302017212 -0.18696950376033783 -2.2637596130371094
H 0.31573542952537537 -0.5063521265983582 0.9851897954940796
H 5.6496195793151855 -0.6483839154243469 -1.3089944124221802
H 4.9377031326293945 -0.9657256603240967 1.953277587890625
H 4.8051958084106445 3.6615712642669678 -1.1506541967391968
