17
Generated by QM7 dataset
C 3.3310391902923584 -1.4022712707519531 3.4029622077941895
C 4.7155280113220215 -1.2753572463989258 0.8842784762382507
C 6.599963188171387 0.9125109314918518 0.7549077868461609
N 8.625957489013672 0.6120445132255554 2.603494644165039
O 10.179633140563965 -1.4764052629470825 2.1191389560699463
C 9.928960800170898 2.654630661010742 3.527287244796753
N 12.216890335083008 2.6732065677642822 4.353607654571533
H 1.9132721424102783 -2.90732479095459 3.3603298664093018
H 2.3626677989959717 0.37977826595306396 3.8078548908233643
H 4.6337785720825195 -1.8038569688796997 4.957847595214844
H 3.3197762966156006 -1.0366848707199097 -0.6287118792533875
H 5.673146724700928 -3.0797622203826904 0.5400459170341492
H 5.590263366699219 2.6926140785217285 1.0828319787979126
H 7.416457176208496 1.017730951309204 -1.1466858386993408
H 10.029305458068848 -2.454792022705078 3.676764488220215
H 8.804800987243652 4.411112308502197 3.55839204788208
H 12.910646438598633 0.8816706538200378 4.085531234741211
