15
Generated by QM7 dataset
C 1.6279990673065186 -0.30645689368247986 0.06054682657122612
C 4.324336051940918 -0.29128238558769226 -0.7225745916366577
O 4.7681379318237305 0.546773374080658 -3.26094913482666
C 5.663698196411133 2.160334825515747 -1.2715210914611816
C 8.470867156982422 2.3561673164367676 -1.1050362586975098
C 9.411478996276855 2.700021743774414 1.5609138011932373
O 8.046680450439453 2.8644089698791504 3.42854905128479
H 1.476631999015808 0.03497882932424545 2.0954983234405518
H 0.7761861085891724 -2.146993398666382 -0.34954264760017395
H 0.5236998200416565 1.1451174020767212 -0.9200698733329773
H 5.388932228088379 -1.8806743621826172 -0.005215643905103207
H 4.6932291984558105 3.9260761737823486 -0.9302365779876709
H 9.119175910949707 3.9813127517700195 -2.2111685276031494
H 9.389482498168945 0.6636151075363159 -1.8708288669586182
H 11.484659194946289 2.809304714202881 1.7567082643508911
