14
Generated by QM7 dataset
C 5.0587968826293945 0.029649803414940834 2.4261438846588135
C 6.516342639923096 0.28043535351753235 0.3738067150115967
C 7.383840084075928 2.8122904300689697 -0.47709915041923523
O 6.84335994720459 4.773523807525635 0.6284662485122681
N 8.874381065368652 2.612187385559082 -2.632634162902832
C 11.120509147644043 4.111174583435059 -2.885082721710205
C 8.871073722839355 4.594680309295654 -4.48568058013916
H 4.439136981964111 -1.818880319595337 3.0570855140686035
H 4.458241939544678 1.661296010017395 3.520125150680542
H 7.1180500984191895 -1.346940040588379 -0.7124645709991455
H 12.700112342834473 3.076889991760254 -3.663120746612549
H 11.519978523254395 5.36442232131958 -1.3190666437149048
H 7.680338382720947 6.203158378601074 -4.061739444732666
H 8.845619201660156 3.913282632827759 -6.410196781158447
