13
Generated by QM7 dataset
C 0.7535660862922668 0.060773592442274094 -0.27718502283096313
C 3.0827102661132812 -0.4359976053237915 0.5824325084686279
C 5.232008934020996 1.409244418144226 0.5861174464225769
O 7.354814052581787 0.22975289821624756 -0.595244824886322
N 9.43528938293457 1.870394229888916 -0.4427250325679779
C 11.36337661743164 0.7726523280143738 -1.4505727291107178
H -0.7130692601203918 -1.3727726936340332 -0.2184334397315979
H 0.25749409198760986 1.8938835859298706 -1.0523695945739746
H 3.4918737411499023 -2.2986817359924316 1.347166895866394
H 5.713605880737305 1.8895750045776367 2.5416250228881836
H 4.752018928527832 3.141688585281372 -0.44329196214675903
H 13.197375297546387 1.7529100179672241 -1.5208704471588135
H 11.281872749328613 -1.144323706626892 -2.265876054763794
