17
Generated by QM7 dataset
C 1.7937091588974 0.19165602326393127 -0.2369338572025299
C 4.65139102935791 0.030160028487443924 -0.11402607709169388
O 5.648183345794678 2.5310425758361816 -0.11207965761423111
C 8.341270446777344 2.5294928550720215 0.0
C 9.252137184143066 5.101750373840332 0.0
C 10.00290584564209 7.22181510925293 0.0
C 10.904645919799805 9.833133697509766 -0.0006047123461030424
H 0.9493606090545654 -1.6938937902450562 -0.2419983297586441
H 1.1945714950561523 1.197292685508728 -1.9424494504928589
H 1.054750680923462 1.2510743141174316 1.3786497116088867
H 5.367653846740723 -1.0084145069122314 -1.7562358379364014
H 5.225716590881348 -0.9544250965118408 1.6147710084915161
H 9.092643737792969 1.5037118196487427 -1.634575366973877
H 8.953201293945312 1.5532982349395752 1.7208224534988403
H 9.392524719238281 11.135268211364746 -0.5459607839584351
H 12.467978477478027 10.072731971740723 -1.3340710401535034
H 11.57561206817627 10.381664276123047 1.8778208494186401
