13
Generated by QM7 dataset
C 5.380598545074463 -1.9667325019836426 0.7427379488945007
N 4.259518146514893 0.17258869111537933 0.4631907641887665
N 5.71103572845459 2.2811830043792725 0.2806243300437927
C 4.648593902587891 4.636972427368164 -0.010393493808805943
C 6.527492046356201 6.426750659942627 -0.14394043385982513
C 8.846753120422363 5.130398750305176 0.07135605812072754
C 8.294839859008789 2.5948586463928223 0.3287178575992584
H 4.213125705718994 -3.685438394546509 0.8913649320602417
H 7.434995174407959 -2.277195692062378 0.8538349866867065
H 2.614530563354492 4.817044258117676 -0.09571462869644165
H 6.2502312660217285 8.44091510772705 -0.3716713488101959
H 10.721588134765625 5.9474406242370605 0.04248104244470596
H 9.570612907409668 1.0204899311065674 0.5391388535499573
