14
Generated by QM7 dataset
O 1.4326770305633545 2.4654123783111572 -1.2747336626052856
N 4.003271579742432 2.6103732585906982 -1.8759689331054688
C 5.304952621459961 2.1071014404296875 0.1340382695198059
C 8.144908905029297 2.1987152099609375 0.07139385491609573
C 9.055964469909668 4.9206013679504395 -0.11192847788333893
C 8.473910331726074 6.437597751617432 2.2296688556671143
O 7.653730869293213 5.532928943634033 4.199840545654297
H 0.6245355606079102 2.931929111480713 -2.86456036567688
H 4.402022361755371 1.6735981702804565 1.9657686948776245
H 8.79357624053955 1.1351395845413208 -1.5822488069534302
H 8.870034217834473 1.2605795860290527 1.7673474550247192
H 8.178470611572266 5.887951850891113 -1.718611478805542
H 11.107998847961426 4.963498115539551 -0.3795326054096222
H 8.893486022949219 8.475025177001953 2.0900182723999023
