15
Generated by QM7 dataset
O 1.9249128103256226 0.062115296721458435 0.6172223687171936
N 4.374848365783691 0.2911500930786133 -0.3297383189201355
C 5.68231201171875 2.537259578704834 0.5427482724189758
C 8.328174591064453 2.467264175415039 -0.5722657442092896
C 9.637810707092285 0.020049994811415672 0.20856907963752747
N 8.10473346710205 -2.259110927581787 -0.2091548889875412
C 5.697731971740723 -1.9435644149780273 -0.3700461685657501
H 0.8864516615867615 0.1939992904663086 -0.9016828536987305
H 4.680473804473877 4.232967853546143 -0.09100920706987381
H 5.76033878326416 2.5699896812438965 2.612867593765259
H 9.428524017333984 4.101386070251465 0.062285374850034714
H 8.218683242797852 2.5585758686065674 -2.641232490539551
H 10.154783248901367 0.10178065299987793 2.2137763500213623
H 11.400301933288574 -0.1704344004392624 -0.8606757521629333
H 4.466858863830566 -3.6062209606170654 -0.6143877506256104
