15
Generated by QM7 dataset
C 2.0027129650115967 0.33338549733161926 -1.1740679740905762
O 4.402400493621826 0.20892812311649323 0.030802536755800247
C 5.7922563552856445 2.375706911087036 -0.019086234271526337
C 8.324054718017578 2.473708152770996 0.05094701796770096
C 9.155704498291016 5.180627346038818 0.007615596521645784
C 6.6759490966796875 6.562678813934326 -0.06971199810504913
C 4.7611083984375 4.899625301361084 -0.07557015120983124
H 1.2559309005737305 -1.5904501676559448 -1.3035520315170288
H 2.1623191833496094 1.0879530906677246 -3.095163583755493
H 0.6730826497077942 1.4526891708374023 -0.05251548811793327
H 9.566133499145508 0.8608836531639099 0.13054227828979492
H 10.291278839111328 5.589016437530518 -1.6705557107925415
H 10.223493576049805 5.661657333374023 1.7109391689300537
H 6.485842227935791 8.593019485473633 -0.08987537771463394
H 2.781790256500244 5.378538608551025 -0.08588805049657822
