15
Generated by QM7 dataset
O 1.7837125062942505 0.17325009405612946 -0.4739244282245636
C 4.408126354217529 0.04775337874889374 0.13345246016979218
C 5.696579456329346 2.513411283493042 -0.5894055962562561
C 6.747739791870117 2.338932991027832 -3.256281614303589
N 8.352684020996094 0.09909723699092865 -3.363806962966919
N 7.330644607543945 -2.19586181640625 -2.863766670227051
C 5.504866600036621 -2.228780746459961 -1.2207252979278564
H 0.9794072508811951 1.2161710262298584 0.8102578520774841
H 4.554901599884033 -0.2949673533439636 2.169726848602295
H 4.388643264770508 4.1148786544799805 -0.4510965347290039
H 7.258721351623535 2.874537944793701 0.724785566329956
H 7.8704071044921875 4.0243988037109375 -3.6795990467071533
H 5.231083393096924 2.215892791748047 -4.660404682159424
H 9.320828437805176 0.037227604538202286 -5.0345892906188965
H 4.648801803588867 -4.073342323303223 -0.7578746676445007
