17
Generated by QM7 dataset
C 2.2324090003967285 -0.29018634557724 0.22582226991653442
C 4.788622856140137 0.9188604354858398 -0.15063007175922394
C 7.054687976837158 -0.8441406488418579 -0.30468055605888367
C 7.582620620727539 -1.4917497634887695 -3.0566508769989014
O 8.867369651794434 0.5232273936271667 -4.292437553405762
N 4.865818023681641 3.3628621101379395 -0.4393613338470459
N 7.1584906578063965 4.416044235229492 -0.8072531819343567
H 0.7504669427871704 1.1484432220458984 0.3153197169303894
H 2.2346200942993164 -1.3667066097259521 1.9882564544677734
H 1.8395917415618896 -1.563446044921875 -1.3512108325958252
H 6.593575954437256 -2.56946063041687 0.7431914806365967
H 8.700129508972168 0.02159957028925419 0.5971912741661072
H 5.845792293548584 -1.8940157890319824 -4.107263088226318
H 8.803628921508789 -3.1565606594085693 -3.171962022781372
H 8.123573303222656 2.099674701690674 -3.6505730152130127
H 6.921348571777344 6.256713390350342 -1.3663665056228638
H 8.096965789794922 4.575386047363281 0.8805745840072632
