21
Generated by QM7 dataset
C 4.035642623901367 -1.8460735082626343 -1.3466566801071167
C 3.7274091243743896 0.743777334690094 -0.14441287517547607
C 6.110505104064941 2.267350196838379 -0.3229542076587677
C 6.341165065765381 4.40249490737915 -2.1972224712371826
C 6.092930793762207 4.974231719970703 0.5833017826080322
C 8.297409057617188 6.003810882568359 2.0349326133728027
C 8.404386520385742 4.923435688018799 4.695685863494873
H 2.263551712036133 -2.906625509262085 -1.2392257452011108
H 5.499122142791748 -2.940300464630127 -0.37316420674324036
H 4.583323001861572 -1.684766411781311 -3.335366725921631
H 3.226839542388916 0.5066733956336975 1.8509111404418945
H 2.151869058609009 1.7350709438323975 -1.0532766580581665
H 7.784046649932861 1.1543391942977905 0.08552900701761246
H 4.743703842163086 4.8324456214904785 -3.406174659729004
H 8.157475471496582 4.680870532989502 -3.1047067642211914
H 4.316096782684326 5.762946605682373 1.2359942197799683
H 8.125198364257812 8.065823554992676 2.137544870376587
H 10.081122398376465 5.593230247497559 1.0643315315246582
H 6.641461372375488 5.2798380851745605 5.716440677642822
H 9.958781242370605 5.777270793914795 5.758468151092529
H 8.706100463867188 2.877183675765991 4.650975227355957
