13
Generated by QM7 dataset
C 1.7439337968826294 0.004232986364513636 -0.24428489804267883
C 4.2587432861328125 0.013965075835585594 0.06340031325817108
C 5.650262355804443 2.380261182785034 0.23292765021324158
C 8.163578987121582 2.268181562423706 0.5451292991638184
O 9.517001152038574 0.033863890916109085 0.7154881358146667
C 8.180813789367676 -2.2105448246002197 0.5484363436698914
C 5.667723178863525 -2.3417487144470215 0.23631025850772858
H 0.6788274049758911 -1.7443116903305054 -0.3737311363220215
H 0.6660339832305908 1.744897484779358 -0.3762444853782654
H 4.673349380493164 4.174688339233398 0.10926396399736404
H 9.394527435302734 3.8901712894439697 0.6961373090744019
H 9.42325210571289 -3.8227458000183105 0.701674222946167
H 4.704360008239746 -4.143810272216797 0.11512211710214615
