15
Generated by QM7 dataset
C 1.6756012439727783 0.27094894647598267 0.1550898253917694
C 4.522190093994141 -0.009580911137163639 0.19579452276229858
C 6.04185152053833 2.038882255554199 1.6306257247924805
C 7.242300033569336 -0.22054994106292725 3.015322685241699
O 9.139056205749512 -0.6364030838012695 4.226675033569336
N 5.336114406585693 -1.7963169813156128 2.192006826400757
N 5.904260158538818 -4.315189838409424 1.5984059572219849
H 0.7844064235687256 -1.43399977684021 -0.6087374687194824
H 1.1221760511398315 1.8611156940460205 -1.0459256172180176
H 0.9017584323883057 0.6029549241065979 2.0464978218078613
H 5.315762042999268 -0.4797069728374481 -1.6633747816085815
H 4.966426849365234 3.2895596027374268 2.874840259552002
H 7.352981090545654 3.1307849884033203 0.46865206956863403
H 4.3681206703186035 -5.381656646728516 2.073936700820923
H 7.30887508392334 -4.882088661193848 2.81009840965271
