11
Generated by QM7 dataset
C 3.3780176639556885 -1.3967533111572266 -1.4861940145492554
C 5.022268295288086 -0.4057430922985077 0.16315895318984985
C 6.015263080596924 2.2441442012786865 0.03650951012969017
C 8.876043319702148 2.326781988143921 -0.09488315135240555
O 10.302257537841797 0.6283906102180481 0.5872890949249268
H 2.7504775524139404 -3.3417348861694336 -1.2923836708068848
H 2.6267571449279785 -0.31569764018058777 -3.059107542037964
H 5.723602294921875 -1.5830235481262207 1.700621247291565
H 5.425365924835205 3.312274217605591 1.7077643871307373
H 5.292442798614502 3.2239294052124023 -1.63703191280365
H 9.661810874938965 4.144698619842529 -0.7508260011672974
