19
Generated by QM7 dataset
C 4.667189121246338 -1.5083982944488525 2.6793293952941895
C 4.639617919921875 -0.06013108417391777 0.2166759967803955
C 3.5634188652038574 -1.1255775690078735 -1.8275541067123413
C 5.884909629821777 2.549372911453247 0.24505968391895294
C 6.020251750946045 3.876338481903076 -2.334359884262085
C 4.592355728149414 4.327869892120361 2.1325936317443848
O 8.438817977905273 2.215552806854248 1.068451166152954
H 6.595049858093262 -1.6914749145507812 3.405380964279175
H 3.9162683486938477 -3.4257900714874268 2.460801362991333
H 3.5074827671051025 -0.5572802424430847 4.102293014526367
H 2.7096405029296875 -2.99143648147583 -1.7348442077636719
H 3.475074052810669 -0.19662600755691528 -3.6525003910064697
H 7.048036098480225 2.726893663406372 -3.71850848197937
H 7.072640419006348 5.655950546264648 -2.187887191772461
H 4.1394829750061035 4.303567886352539 -3.0854125022888184
H 4.75891637802124 3.6349637508392334 4.076592922210693
H 2.5867326259613037 4.5838518142700195 1.6902844905853271
H 5.501163005828857 6.190478324890137 2.1282284259796143
H 9.174393653869629 0.9217139482498169 -0.010166727006435394
