13
Generated by QM7 dataset
C 1.8805609941482544 0.01617605611681938 0.00788015779107809
C 4.761807441711426 0.011735199019312859 0.005612486507743597
C 5.794070243835449 -1.3863598108291626 -2.2941465377807617
N 5.684447288513184 2.617780923843384 0.0362638458609581
H 1.140487551689148 0.9986068606376648 1.6745808124542236
H 1.148462176322937 -1.919772744178772 0.04571247473359108
H 1.1152030229568481 0.9503243565559387 -1.6757146120071411
H 5.427123546600342 -0.934072732925415 1.7218050956726074
H 5.17981481552124 -0.5024781823158264 -4.064366340637207
H 5.140981197357178 -3.3507111072540283 -2.3066186904907227
H 7.864907741546631 -1.414384365081787 -2.279841184616089
H 5.102921962738037 3.535715341567993 -1.5561894178390503
H 7.61100435256958 2.622391939163208 -0.0231869388371706
