13
Generated by QM7 dataset
O 2.0492947101593018 0.6947011351585388 -1.6469719409942627
C 3.8547956943511963 0.5268367528915405 -0.19284655153751373
C 6.043778896331787 2.3946421146392822 -0.050153329968452454
O 6.917682647705078 2.5354833602905273 2.5245230197906494
C 6.663022994995117 5.099501609802246 3.400184154510498
C 5.647937774658203 6.5465593338012695 1.2330840826034546
C 5.2945966720581055 5.012007236480713 -0.7269776463508606
H 4.06776762008667 -1.1580619812011719 1.0175608396530151
H 7.59352445602417 1.6901710033416748 -1.2225961685180664
H 8.521492958068848 5.788987159729004 3.98520565032959
H 5.375080108642578 5.126222133636475 5.015578746795654
H 5.242459297180176 8.546059608459473 1.2666645050048828
H 4.545868396759033 5.55124044418335 -2.5491650104522705
