16
Generated by QM7 dataset
C 1.879086971282959 0.02277120016515255 0.1433735191822052
C 4.673084735870361 0.07751656323671341 -0.0987192913889885
C 6.228537559509277 -1.876479148864746 -0.37159574031829834
O 8.772259712219238 -1.334808111190796 -0.46604424715042114
C 8.846166610717773 1.392406940460205 -0.5730972290039062
C 6.198188304901123 2.42448091506958 0.0826755166053772
N 5.309525489807129 4.411792278289795 -1.6061160564422607
H 1.1569470167160034 -1.9169381856918335 0.12235976755619049
H 0.988099992275238 1.0422784090042114 -1.4202237129211426
H 1.2900782823562622 0.8982624411582947 1.9222294092178345
H 5.777402877807617 -3.8605403900146484 -0.47025835514068604
H 9.441336631774902 1.923533320426941 -2.4878811836242676
H 10.279845237731934 2.0873537063598633 0.7490874528884888
H 6.171731948852539 3.125002384185791 2.0314745903015137
H 5.340611934661865 3.7542245388031006 -3.4172861576080322
H 6.543762683868408 5.887441635131836 -1.5601011514663696
