22
Generated by QM7 dataset
C 3.444441556930542 1.26046621799469 0.09208635240793228
C 5.6949920654296875 2.771850347518921 1.0596072673797607
N 7.930046558380127 2.133897542953491 -0.42883554100990295
C 10.293262481689453 3.4254310131073 0.28982728719711304
C 11.085832595825195 2.7857964038848877 3.0115621089935303
C 12.34682846069336 2.4269752502441406 -1.518772840499878
C 10.101927757263184 6.306413173675537 -0.03660399466753006
H 1.7535146474838257 1.7190839052200317 1.1941368579864502
H 3.7814743518829346 -0.7738617658615112 0.26000741124153137
H 3.0444998741149902 1.6926088333129883 -1.8926174640655518
H 5.968926906585693 2.311305046081543 3.055781602859497
H 5.242950439453125 4.784654140472412 0.9082968831062317
H 7.563326358795166 2.4620485305786133 -2.293447256088257
H 9.791162490844727 3.5951473712921143 4.407861709594727
H 12.970815658569336 3.5373783111572266 3.426942825317383
H 11.154523849487305 0.7379380464553833 3.3132567405700684
H 11.895108222961426 2.860383987426758 -3.4941036701202393
H 12.563939094543457 0.3728240728378296 -1.3560863733291626
H 14.18723201751709 3.2813961505889893 -1.1031843423843384
H 9.459421157836914 6.807889461517334 -1.9407864809036255
H 11.944354057312012 7.20665979385376 0.2540358901023865
H 8.791402816772461 7.153426170349121 1.3228460550308228
