17
Generated by QM7 dataset
C 2.2319366931915283 -1.0878019332885742 0.4039667546749115
O 4.701260566711426 -0.30898910760879517 1.118188738822937
C 5.182706356048584 2.2792930603027344 0.5205061435699463
C 4.412378311157227 3.8672678470611572 2.7481720447540283
C 2.780202865600586 5.803764820098877 2.658315658569336
C 7.976590633392334 2.4826276302337646 0.04928405582904816
C 9.035177230834961 3.2715883255004883 -2.11331844329834
H 2.018699884414673 -3.085318088531494 0.8880389928817749
H 1.9639357328414917 -0.8789305090904236 -1.6365406513214111
H 0.7953290343284607 -0.008239205926656723 1.42681884765625
H 4.143829345703125 2.8311121463775635 -1.189336895942688
H 5.243366241455078 3.353205680847168 4.556734561920166
H 1.8873828649520874 6.383419513702393 0.9062181711196899
H 2.307090997695923 6.848575592041016 4.358899116516113
H 9.201662063598633 1.8974740505218506 1.5928879976272583
H 7.903231620788574 3.8428902626037598 -3.7248013019561768
H 11.075911521911621 3.3371241092681885 -2.3129491806030273
