19
Generated by QM7 dataset
C 4.290283203125 -1.4683550596237183 -1.673371434211731
O 3.690502882003784 0.9147975444793701 -0.5933173298835754
C 5.884871959686279 2.4828734397888184 -0.21701614558696747
C 6.379073143005371 4.518958568572998 -2.1541178226470947
C 4.788754940032959 4.781328201293945 -4.464742660522461
C 5.306710243225098 5.208236217498779 0.3922693431377411
C 6.8787922859191895 6.606539249420166 2.2629470825195312
H 2.536163568496704 -2.516057014465332 -1.9656364917755127
H 5.505792617797852 -2.546746015548706 -0.39247721433639526
H 5.230440616607666 -1.218703269958496 -3.4990735054016113
H 7.508524417877197 1.647066354751587 0.7227068543434143
H 8.337944030761719 4.974609375 -2.5453288555145264
H 2.780637502670288 4.45525598526001 -4.086116790771484
H 5.401876449584961 3.431931734085083 -5.907869815826416
H 4.9853997230529785 6.687381744384766 -5.24472713470459
H 3.333155632019043 5.74801778793335 0.5118134021759033
H 8.872906684875488 6.067116737365723 2.163264036178589
H 6.20463228225708 6.2289910316467285 4.180697917938232
H 6.744810581207275 8.641169548034668 1.9212278127670288
