13
Generated by QM7 dataset
N 2.0901882648468018 0.37807750701904297 -0.8620741367340088
C 4.776925086975098 -0.048868317157030106 -0.1972685158252716
C 5.878201007843018 -1.8550496101379395 -1.9978374242782593
C 6.7709832191467285 -3.3408467769622803 -3.4642269611358643
C 6.249192237854004 2.4829866886138916 -0.23224733769893646
N 5.0356855392456055 4.454273700714111 -1.3948636054992676
O 8.36426830291748 2.7686567306518555 0.6783549785614014
H 1.3082385063171387 1.4313163757324219 0.5501937866210938
H 1.1992391347885132 -1.3294789791107178 -0.8019430637359619
H 4.864532947540283 -0.7916440963745117 1.7332946062088013
H 7.572605133056641 -4.649236679077148 -4.7685160636901855
H 3.502021551132202 4.041311740875244 -2.4704577922821045
H 6.003735542297363 6.072464942932129 -1.684577465057373
