15
Generated by QM7 dataset
C 1.9567546844482422 -0.3524906039237976 -0.6807360649108887
C 4.760862827301025 -0.5924858450889587 -0.25766414403915405
O 5.830012798309326 -2.6491503715515137 -0.45073747634887695
C 6.162169933319092 1.8316737413406372 0.3416246771812439
C 8.920509338378906 1.437231183052063 0.805779218673706
C 10.873125076293945 2.009213447570801 -1.1844803094863892
O 10.364373207092285 3.7319257259368896 0.8487704992294312
H 1.106075644493103 0.7304736375808716 0.8612805008888245
H 1.0923562049865723 -2.229536771774292 -0.7129181027412415
H 1.6092718839645386 0.5908228754997253 -2.485065460205078
H 5.312700271606445 2.6504921913146973 2.0434553623199463
H 5.860645294189453 3.1456947326660156 -1.231704592704773
H 9.329898834228516 0.02706087753176689 2.2304816246032715
H 10.260797500610352 2.5499398708343506 -3.058786392211914
H 12.638904571533203 0.9766482710838318 -1.1280720233917236
