18
Generated by QM7 dataset
C -3.1906514167785645 1.5334371328353882 1.0602308511734009
C -2.167515993118286 -0.5969077944755554 -0.5219612717628479
C -0.625801682472229 -2.696525812149048 0.5897079110145569
C 2.0465922355651855 -2.6037402153015137 -0.4918201267719269
C 3.2288239002227783 0.03819136694073677 -0.2976507544517517
C 1.4027814865112305 2.0651872158050537 0.6757093667984009
N -1.0444515943527222 1.9470226764678955 -0.6316031813621521
H -4.953652381896973 2.3962104320526123 0.4741322994232178
H -2.8836653232574463 1.521985411643982 3.083333969116211
H -3.1883270740509033 -1.1569092273712158 -2.206444263458252
H -0.5564865469932556 -2.5514514446258545 2.656444787979126
H -1.5020110607147217 -4.520602703094482 0.15074345469474792
H 3.2494406700134277 -3.9998321533203125 0.45330750942230225
H 1.9826061725616455 -3.1475467681884766 -2.4932100772857666
H 4.876438140869141 -0.03658509626984596 0.9568250179290771
H 3.950132369995117 0.5866843461990356 -2.162527084350586
H 1.2240700721740723 1.895565390586853 2.7364180088043213
H 2.231086254119873 3.9335217475891113 0.33767515420913696
