19
Generated by QM7 dataset
N 1.7194807529449463 4.304210186004639 -1.1586477756500244
C 4.463249683380127 4.3722028732299805 -1.377648115158081
C 5.659219741821289 2.461557149887085 0.423544317483902
C 8.523231506347656 2.5199875831604004 0.16933836042881012
C 9.945779800415039 4.766342639923096 1.3733584880828857
N 11.923454284667969 2.969080924987793 2.2073702812194824
C 10.021122932434082 0.9161959290504456 2.09177565574646
H 0.9498141407966614 5.6359758377075195 -2.316558599472046
H 1.1964612007141113 4.781215190887451 0.6329637765884399
H 5.141793727874756 6.283377170562744 -0.9626076221466064
H 4.998760223388672 3.9397010803222656 -3.3299431800842285
H 4.9706220626831055 0.5561274886131287 -0.0185382142663002
H 5.0954766273498535 2.8719301223754883 2.3770487308502197
H 9.132290840148926 2.145500659942627 -1.78278648853302
H 8.966334342956543 5.688113689422607 2.949692487716675
H 10.597244262695312 6.221375465393066 0.057882312685251236
H 13.339122772216797 2.7523484230041504 0.915440022945404
H 10.737159729003906 -0.888643741607666 1.3830149173736572
H 9.0678129196167 0.5860040783882141 3.9020955562591553
