13
Generated by QM7 dataset
C 1.9114580154418945 -0.05340366065502167 0.48033058643341064
C 4.762109756469727 0.0 0.0
C 5.364799976348877 -1.4633471965789795 -2.391599655151367
C 6.370361328125 -0.596945583820343 -4.551424503326416
C 5.672995567321777 2.5722384452819824 0.0
N 6.399047374725342 4.622572422027588 0.0
H 1.4443176984786987 0.8823320269584656 2.2683327198028564
H 1.2072325944900513 -1.9977995157241821 0.587459146976471
H 0.8671197295188904 0.9190872311592102 -1.0224741697311401
H 5.682973384857178 -1.0099074840545654 1.5608570575714111
H 4.92840576171875 -3.4752063751220703 -2.3005146980285645
H 6.878924369812012 1.3722057342529297 -4.835185527801514
H 6.7142157554626465 -1.869657278060913 -6.126511096954346
