19
Generated by QM7 dataset
C 5.253986835479736 -2.0474047660827637 -0.9812402725219727
C 4.192546367645264 0.4653072655200958 -0.08140940219163895
C 6.2260050773620605 2.4106857776641846 0.24131803214550018
N 6.547787666320801 4.437681674957275 -1.6084026098251343
C 5.504073143005371 5.09632682800293 0.8731101751327515
C 7.059808731079102 6.590684413909912 2.7017414569854736
N 6.513697147369385 9.264646530151367 2.3214528560638428
H 3.732360363006592 -3.4275097846984863 -1.21942138671875
H 6.603421211242676 -2.810438394546509 0.38988828659057617
H 6.236039638519287 -1.837626338005066 -2.7894625663757324
H 3.247267484664917 0.1804310530424118 1.7395496368408203
H 2.7455642223358154 1.1121793985366821 -1.4168599843978882
H 7.937076568603516 1.665037751197815 1.0873862504959106
H 5.144495964050293 4.42356538772583 -2.9341211318969727
H 3.511489152908325 5.572197437286377 0.9521006941795349
H 9.085463523864746 6.249210834503174 2.437312126159668
H 6.569046974182129 6.049731254577637 4.6364240646362305
H 6.993895530700684 9.71013069152832 0.5069568157196045
H 7.68372106552124 10.300651550292969 3.443969249725342
