13
Generated by QM7 dataset
C 1.8710745573043823 -0.020465733483433723 0.03658509626984596
C 4.675994873046875 0.0801432877779007 0.17334458231925964
C 6.129118919372559 2.1408329010009766 0.048868317157030106
C 8.734257698059082 1.1795103549957275 0.09184069186449051
N 10.815053939819336 2.413860559463501 -0.025756966322660446
O 8.651015281677246 -1.4089609384536743 0.2276553064584732
N 6.096351146697998 -2.0767524242401123 0.44816744327545166
H 1.0463224649429321 1.8753453493118286 -0.045334529131650925
H 1.0989323854446411 -0.9768750071525574 1.7001866102218628
H 1.2672502994537354 -1.0537680387496948 -1.650335669517517
H 5.591302871704102 4.083943843841553 -0.15953068435192108
H 10.453643798828125 4.309199333190918 -0.12549671530723572
H 5.58242130279541 -3.5376806259155273 -0.6958727240562439
