20
Generated by QM7 dataset
C 2.177644729614258 -0.5387042164802551 -0.08150389045476913
N 4.928349018096924 -0.4274560511112213 0.22829781472682953
C 6.102624893188477 -2.521253824234009 -1.1480275392532349
C 5.87691593170166 2.0525448322296143 -0.6284472942352295
C 8.678851127624512 2.5162837505340576 0.005744767375290394
C 9.515867233276367 5.115035057067871 -0.7931747436523438
C 10.449958801269531 6.856814384460449 0.7886583209037781
H 1.2572158575057983 0.9453921914100647 1.0305243730545044
H 1.4369854927062988 -2.3409926891326904 0.6185451745986938
H 1.604736566543579 -0.32323765754699707 -2.061048746109009
H 5.30155086517334 -4.3318190574646 -0.5407451391220093
H 8.128373146057129 -2.6381709575653076 -0.7491819262504578
H 5.840803146362305 -2.3542776107788086 -3.1963961124420166
H 4.7752814292907715 3.541724681854248 0.31065207719802856
H 5.566717624664307 2.2819576263427734 -2.667839765548706
H 9.882757186889648 1.1506731510162354 -0.9788592457771301
H 8.984098434448242 2.2443900108337402 2.038768768310547
H 9.366257667541504 5.565659046173096 -2.794205665588379
H 10.652745246887207 6.490755558013916 2.7962088584899902
H 11.039704322814941 8.696009635925293 0.09594139456748962
