19
Generated by QM7 dataset
C 1.574217438697815 1.6249566078186035 1.985856533050537
C 4.390230655670166 1.5127824544906616 1.8235479593276978
C 5.751173496246338 2.6410622596740723 0.000963760307058692
C 8.580037117004395 2.523559093475342 -0.1814326047897339
C 9.726628303527832 5.112654209136963 0.004988877102732658
C 11.091313362121582 6.20400857925415 -1.8347917795181274
C 12.238981246948242 8.775623321533203 -1.6337249279022217
H 0.7877323627471924 -0.2851785719394684 1.8914079666137695
H 0.7447977662086487 2.7410099506378174 0.4546681046485901
H 1.0067137479782104 2.4741616249084473 3.7837231159210205
H 5.343295097351074 0.4403628706932068 3.2950966358184814
H 4.791721820831299 3.705223798751831 -1.4740052223205566
H 9.085123062133789 1.616660714149475 -1.9747827053070068
H 9.373098373413086 1.3435386419296265 1.3260396718978882
H 9.414804458618164 6.115626335144043 1.773545742034912
H 11.411602973937988 5.202737331390381 -3.601496696472168
H 11.84979248046875 9.666383743286133 0.19195838272571564
H 11.488948822021484 9.999316215515137 -3.122281074523926
H 14.289938926696777 8.650561332702637 -1.8661234378814697
