17
Generated by QM7 dataset
C 1.7723174095153809 -0.06086807698011398 0.2873517572879791
C 4.626370906829834 0.07626934349536896 -0.052912332117557526
C 5.410739421844482 0.025605788454413414 -2.8289010524749756
C 5.965166091918945 2.086049795150757 1.6027145385742188
C 7.835031509399414 -0.029120679944753647 2.274606704711914
N 5.9258222579956055 -1.8939969539642334 1.4667298793792725
H 1.2338021993637085 -0.1079411581158638 2.287040948867798
H 0.9915204048156738 -1.7537035942077637 -0.6131405234336853
H 0.8563293814659119 1.5887871980667114 -0.5640832781791687
H 7.467252731323242 0.0682947039604187 -3.0657782554626465
H 4.640297889709473 1.6663227081298828 -3.8295300006866455
H 4.705455780029297 -1.6778689622879028 -3.7712509632110596
H 4.862057685852051 2.7591891288757324 3.2229089736938477
H 6.768261909484863 3.715447187423706 0.6181861162185669
H 9.55470085144043 -0.04055352136492729 1.1204564571380615
H 8.368330955505371 -0.14647267758846283 4.266982555389404
H 6.625341892242432 -3.3838002681732178 0.4679339826107025
