17
Generated by QM7 dataset
N 5.208444118499756 -0.6222679018974304 3.48535418510437
C 4.874661922454834 -0.6120256185531616 0.7516008019447327
C 5.945796489715576 1.7911958694458008 -0.44733595848083496
C 8.750490188598633 2.2540276050567627 0.06857816129922867
C 10.339315414428711 0.11514101177453995 -0.9105267524719238
N 11.366400718688965 0.23485516011714935 -3.1270809173583984
O 12.668044090270996 -2.023329734802246 -3.5834498405456543
H 4.404592514038086 -2.214740037918091 4.216640472412109
H 4.241830348968506 0.8565183877944946 4.2583842277526855
H 2.8560943603515625 -0.7512039542198181 0.31157803535461426
H 5.784924030303955 -2.287040948867798 -0.05132496356964111
H 4.87097692489624 3.432385206222534 0.2260679304599762
H 5.638697147369385 1.6841050386428833 -2.495307683944702
H 9.123332977294922 2.4715917110443115 2.0912275314331055
H 9.333621978759766 4.005558013916016 -0.8704456686973572
H 10.514304161071777 -1.5764662027359009 0.3001829981803894
H 13.362649917602539 -1.741552710533142 -5.267989635467529
