12
Generated by QM7 dataset
N 1.6782658100128174 0.1297674924135208 0.2345150113105774
C 4.225975513458252 0.024982178583741188 0.12921947240829468
C 5.880959987640381 2.0351216793060303 0.043973926454782486
O 5.045474529266357 4.444616794586182 0.036244947463274
C 8.455202102661133 1.2888877391815186 -0.039665352553129196
C 8.690605163574219 -1.3049125671386719 -0.030424591153860092
S 5.81544303894043 -2.788215398788452 0.07394498586654663
H 0.8291740417480469 1.8097907304763794 -0.14821122586727142
H 0.6514452695846558 -1.4212251901626587 -0.22321444749832153
H 6.469326019287109 5.603227138519287 0.0223365630954504
H 10.058539390563965 2.5549476146698 -0.10701519250869751
H 10.408366203308105 -2.4098165035247803 -0.08277000486850739
