16
Generated by QM7 dataset
C 2.684885025024414 -1.1793591976165771 -0.34032076597213745
N 5.342104434967041 -0.6477036476135254 -0.11026552319526672
C 6.316730976104736 1.6320053339004517 -0.8757746815681458
O 5.084478378295898 3.322648763656616 -1.85956609249115
C 9.06250286102295 1.9329441785812378 -0.3363712430000305
C 10.49321460723877 4.221364498138428 -1.2698014974594116
C 9.921005249023438 3.949357509613037 1.4945088624954224
H 2.3882925510406494 -3.201914072036743 -0.053838297724723816
H 2.010857582092285 -0.6250836253166199 -2.2134172916412354
H 1.6637904644012451 -0.10824351012706757 1.1011433601379395
H 6.437257766723633 -1.8267982006072998 0.9176509976387024
H 10.126532554626465 0.1778988242149353 -0.32525965571403503
H 9.4658842086792 5.646218299865723 -2.327651262283325
H 12.426234245300293 3.954270839691162 -1.8898961544036865
H 11.469862937927246 3.5073883533477783 2.7581686973571777
H 8.509342193603516 5.201943397521973 2.2956392765045166
