15
Generated by QM7 dataset
C 1.9144059419631958 -0.15580791234970093 -0.4107130765914917
C 4.542807102203369 0.2742370665073395 0.5253816843032837
C 5.804407119750977 2.460007667541504 0.5005695819854736
O 8.259936332702637 2.616779327392578 1.4328281879425049
C 8.975839614868164 5.24036169052124 1.2195347547531128
C 6.781830310821533 6.54606819152832 0.0573342926800251
C 4.953047752380371 4.8718461990356445 -0.34867337346076965
H 1.766119122505188 -2.0515623092651367 -1.2260732650756836
H 1.361509919166565 1.1882030963897705 -1.8800318241119385
H 0.5728138089179993 -0.02639947459101677 1.158307671546936
H 5.497288703918457 -1.3728671073913574 1.2952183485031128
H 10.664763450622559 5.380125999450684 0.03509221598505974
H 9.38846206665039 5.973140716552734 3.108750581741333
H 6.703104496002197 8.53577995300293 -0.3684588074684143
H 3.1236793994903564 5.273564338684082 -1.1568526029586792
