15
Generated by QM7 dataset
N 1.4666920900344849 3.2982335090637207 -0.5255706310272217
N 3.904665470123291 3.2182226181030273 -1.281158685684204
C 5.420509338378906 2.441167116165161 0.47347089648246765
C 8.27614974975586 2.240837335586548 -0.008843918330967426
C 9.572294235229492 4.319536209106445 -1.5502368211746216
O 11.51926040649414 4.615486145019531 0.3552118241786957
C 10.05266284942627 3.10910964012146 2.1034352779388428
H 0.3363901376724243 3.625364065170288 -2.0621635913848877
H 1.150899887084961 4.8116583824157715 0.6378770470619202
H 4.748598098754883 1.9068092107772827 2.379429817199707
H 8.768593788146973 0.34612223505973816 -0.6976869106292725
H 8.51332950592041 6.077812671661377 -1.8046696186065674
H 10.358061790466309 3.710042715072632 -3.36191725730896
H 11.185705184936523 1.6157158613204956 2.9729926586151123
H 9.208333015441895 4.291038990020752 3.5767791271209717
