18
Generated by QM7 dataset
C 2.699568271636963 -0.07951967418193817 2.2328436374664307
C 4.227581977844238 0.3995825946331024 -0.15208515524864197
C 6.286722183227539 2.28450870513916 0.3095560371875763
N 7.100513458251953 3.966365098953247 -1.7196696996688843
C 5.721032619476318 5.0815300941467285 0.40099987387657166
C 7.172625541687012 6.6737189292907715 2.128511905670166
C 6.68356466293335 7.01972770690918 4.588859558105469
H 1.2669857740402222 -1.5291285514831543 1.8899340629577637
H 1.7400598526000977 1.6441373825073242 2.8511054515838623
H 3.9153802394866943 -0.7171510457992554 3.778998851776123
H 2.9515254497528076 1.0333589315414429 -1.65902841091156
H 5.079130172729492 -1.3786119222640991 -0.7904724478721619
H 7.7807393074035645 1.5419598817825317 1.4997811317443848
H 5.951862335205078 3.826374053955078 -3.258965015411377
H 3.8170199394226074 5.723942756652832 -0.005688075441867113
H 8.789758682250977 7.658341884613037 1.3203327655792236
H 5.103129863739014 6.090190410614014 5.504129886627197
H 7.872901439666748 8.239432334899902 5.729838848114014
