19
Generated by QM7 dataset
C 5.061234474182129 -1.1154108047485352 -0.038342542946338654
C 3.0422511100769043 0.8864138126373291 0.4286276698112488
N 4.105883598327637 3.1233770847320557 1.7280789613723755
C 2.2907638549804688 5.246087551116943 1.5478935241699219
C 2.5838980674743652 6.66468620300293 -0.9405356049537659
N 4.958357810974121 2.633068799972534 4.112761974334717
C 6.946047306060791 3.931499719619751 4.681947708129883
H 4.242473125457764 -2.718900203704834 -1.0579442977905273
H 5.851839542388916 -1.8347539901733398 1.7325387001037598
H 6.608240127563477 -0.35634565353393555 -1.1842725276947021
H 1.4999134540557861 0.0700143501162529 1.5487627983093262
H 2.256767749786377 1.407486915588379 -1.4143465757369995
H 2.657956600189209 6.607635498046875 3.0688395500183105
H 0.3388656973838806 4.600216865539551 1.8100552558898926
H 4.516407489776611 7.374939918518066 -1.1608209609985352
H 1.3056496381759644 8.291967391967773 -0.9815048575401306
H 2.1412298679351807 5.477598190307617 -2.574317216873169
H 7.81622838973999 3.7080206871032715 6.558332443237305
H 7.8556294441223145 5.284486770629883 3.3783390522003174
