15
Generated by QM7 dataset
C 1.463555097579956 2.5691583156585693 -0.17939169704914093
C -1.3646467924118042 2.226834297180176 0.35632675886154175
C -1.8777074813842773 -0.4645702838897705 -0.37142565846443176
N -1.4094144105911255 -2.5408880710601807 1.3659507036209106
C 0.5904638171195984 -1.8578464984893799 -0.38924577832221985
C 2.6376986503601074 -0.03186078369617462 0.32690373063087463
H 1.7243183851242065 3.0575201511383057 -2.177625894546509
H 2.317257881164551 4.067106246948242 0.9597352147102356
H -2.4969141483306885 3.5548582077026367 -0.7529613971710205
H -1.7754732370376587 2.5382423400878906 2.3622899055480957
H -3.1906890869140625 -0.7438907027244568 -1.9094737768173218
H -1.0388391017913818 -1.9075084924697876 3.150400161743164
H 1.0128743648529053 -3.1161961555480957 -1.9402762651443481
H 3.1391563415527344 -0.23551656305789948 2.326139450073242
H 4.3472771644592285 -0.30810093879699707 -0.8033981919288635
