14
Generated by QM7 dataset
C 1.6041885614395142 -0.73697429895401 0.17572563886642456
C 4.448812007904053 -0.39090874791145325 0.13604138791561127
C 5.089939594268799 2.3348889350891113 -0.33164694905281067
N 6.294734477996826 3.007650375366211 -2.34879732131958
N 6.675363063812256 5.607460021972656 -2.374894380569458
C 7.9377946853637695 6.2668232917785645 -4.353229999542236
H 1.1225918531417847 -2.7165002822875977 0.5283862948417664
H 0.7640162706375122 -0.17345796525478363 -1.6290194988250732
H 0.7363506555557251 0.41553187370300293 1.6589906215667725
H 5.297242641448975 -1.576333999633789 -1.3325592279434204
H 5.253476619720459 -0.9322397112846375 1.9635955095291138
H 4.487381458282471 3.7163732051849365 1.1135588884353638
H 8.403196334838867 8.270084381103516 -4.66514778137207
H 8.598443031311035 4.906428337097168 -5.78889274597168
