17
Generated by QM7 dataset
C 1.9148783683776855 3.2739317417144775 2.6524007320404053
C 4.670476913452148 2.7146105766296387 2.411555051803589
C 5.982457160949707 2.9661707878112793 0.2561901807785034
C 8.723845481872559 2.3758959770202637 0.10599473863840103
C 10.50786018371582 4.442859649658203 1.0825484991073608
C 11.770631790161133 2.297283411026001 2.5362582206726074
O 9.721450805664062 0.5856828093528748 1.939992904663086
H 1.6183992624282837 4.760106563568115 4.059509754180908
H 0.9040827751159668 1.579697608947754 3.272325277328491
H 1.0848917961120605 3.9022655487060547 0.8647764921188354
H 5.611522674560547 2.048633098602295 4.115143299102783
H 5.069738388061523 3.609811544418335 -1.4645944833755493
H 9.212037086486816 1.7316128015518188 -1.80587899684906
H 9.657011032104492 5.889595985412598 2.2899134159088135
H 11.685688018798828 5.342350482940674 -0.3558921217918396
H 13.561430931091309 1.6228023767471313 1.7531367540359497
H 11.955276489257812 2.5969183444976807 4.57183313369751
