19
Generated by QM7 dataset
C 1.6651511192321777 -0.15578901767730713 0.27858343720436096
C 4.529805660247803 -0.33782634139060974 -0.08061571419239044
C 5.134631633758545 -2.120234966278076 -2.2747390270233154
C 5.713568210601807 2.271904230117798 -0.5629683136940002
N 5.489295482635498 3.866379737854004 1.6564772129058838
C 6.148677349090576 6.3532023429870605 1.722579836845398
N 6.4904913902282715 7.8715410232543945 -0.1340193748474121
H 1.188959002494812 1.0037469863891602 1.9242514371871948
H 0.8444052338600159 -2.0314934253692627 0.5806183815002441
H 0.752564549446106 0.680188000202179 -1.380501627922058
H 5.345978736877441 -1.1478008031845093 1.6460459232330322
H 4.371748924255371 -1.4013642072677612 -4.05932092666626
H 4.327831745147705 -3.996544122695923 -1.9422416687011719
H 7.1797685623168945 -2.344545364379883 -2.4957046508789062
H 4.789076328277588 3.1634960174560547 -2.18790602684021
H 7.722309112548828 2.056229829788208 -1.0214914083480835
H 5.686771869659424 2.937957286834717 3.325936794281006
H 6.379942417144775 7.061887741088867 3.668430805206299
H 6.160658359527588 6.9613165855407715 -1.8012113571166992
