13
Generated by QM7 dataset
N 2.207937002182007 -0.1744595170021057 -0.23307882249355316
C 4.611479759216309 0.23965506255626678 -0.24173375964164734
C 5.643289089202881 2.71287202835083 0.5724547505378723
C 8.12478256225586 2.4292807579040527 0.1611936390399933
C 8.842387199401855 -0.06147279217839241 -0.8143585920333862
C 8.328003883361816 -2.3674111366271973 0.7293397784233093
N 6.417207717895508 -1.4907104969024658 -1.0690369606018066
H 1.954411506652832 -1.9728929996490479 -0.9146652221679688
H 4.5645012855529785 4.288053035736084 1.2549482583999634
H 9.505870819091797 3.8946876525878906 0.5174258947372437
H 9.977583885192871 -0.16412271559238434 -2.5108790397644043
H 9.197731971740723 -4.129391670227051 0.1676943004131317
H 7.782251358032227 -2.2150802612304688 2.6942014694213867
