16
Generated by QM7 dataset
C 1.6242952346801758 -2.439995527267456 1.4865530729293823
N 3.3359901905059814 -0.288617879152298 0.9982856512069702
C 1.3976036310195923 0.9352065920829773 -0.5910496711730957
C -0.386184424161911 2.774080276489258 0.7806836366653442
C -2.892981767654419 1.4291809797286987 0.7431159019470215
C -2.7335643768310547 -0.9602832198143005 -0.08025667071342468
C -0.08418729901313782 -1.5749733448028564 -0.7128424644470215
H 2.497934579849243 -4.296500205993652 1.2409642934799194
H 0.7673611044883728 -2.3780312538146973 3.372896671295166
H 4.903726100921631 -0.8024721741676331 0.000869274022988975
H 2.087939500808716 1.6459137201309204 -2.410024404525757
H 0.20057553052902222 3.1563150882720947 2.7282164096832275
H -0.5162920951843262 4.568904399871826 -0.24316996335983276
H -4.628543853759766 2.325723648071289 1.3427259922027588
H -4.296273231506348 -2.2592053413391113 -0.2540169954299927
H 0.1577543318271637 -2.6383979320526123 -2.472460985183716
