15
Generated by QM7 dataset
C 1.755536675453186 -0.19792991876602173 -0.11687956005334854
N 4.501308917999268 -0.09461858868598938 -0.2986901104450226
C 5.415369510650635 2.4845173358917236 0.020106686279177666
C 8.240774154663086 2.4745962619781494 -0.06908838450908661
C 9.616211891174316 3.8095178604125977 -1.7299120426177979
C 12.299905776977539 3.7481017112731934 -1.744897484779358
N 14.492403984069824 3.714974880218506 -1.7748308181762695
H 1.1238012313842773 -2.153796434402466 -0.34621673822402954
H 0.8553467392921448 0.9384379982948303 -1.5933036804199219
H 1.1010489463806152 0.4545547366142273 1.7340693473815918
H 5.036365985870361 -0.7500512003898621 -2.0299437046051025
H 4.8313117027282715 3.231356143951416 1.862438440322876
H 4.629753589630127 3.7216455936431885 -1.4450546503067017
H 9.181517601013184 1.3030606508255005 1.3390787839889526
H 8.71373462677002 4.990540027618408 -3.140082359313965
