14
Generated by QM7 dataset
C 1.8479442596435547 -0.8026800751686096 -0.4412132501602173
C 4.299845218658447 -0.19295993447303772 -0.28221169114112854
N 5.4516143798828125 2.1643600463867188 -0.018349241465330124
C 3.9181015491485596 4.284954071044922 0.19158042967319489
C 4.656795501708984 6.697057247161865 0.3978629410266876
C 8.097400665283203 2.2520623207092285 0.03333476930856705
O 9.555551528930664 0.4536287486553192 -0.146793931722641
H 1.3214855194091797 -2.777538299560547 -0.6500090956687927
H 0.2970082461833954 0.5257785320281982 -0.392760694026947
H 5.638716220855713 -1.7606955766677856 -0.3827829360961914
H 1.8901418447494507 3.9778735637664795 0.19515201449394226
H 6.601871490478516 7.329038143157959 0.4163822531700134
H 3.2394819259643555 8.176486015319824 0.5524236559867859
H 8.861285209655762 4.166449069976807 0.26771751046180725
