13
Generated by QM7 dataset
C 1.985629677772522 -0.02885611727833748 0.17056667804718018
C 4.790928363800049 -0.008541561663150787 -0.03906063735485077
N 6.172129154205322 -2.0306808948516846 -0.20890922844409943
N 8.61681079864502 -1.1999194622039795 -0.3608810007572174
C 8.901932716369629 1.401817798614502 -0.2932854890823364
O 10.857364654541016 2.607311725616455 -0.3982408940792084
C 6.268542766571045 2.4128212928771973 -0.06145389378070831
H 1.2715966701507568 -1.9657498598098755 0.10212080180644989
H 1.1742758750915527 1.0520672798156738 -1.3911596536636353
H 1.4275935888290405 0.8406446576118469 1.958927869796753
H 10.071919441223145 -2.435082197189331 -0.5114355087280273
H 5.763513565063477 3.555708646774292 -1.7020385265350342
H 6.017416954040527 3.432366371154785 1.7131123542785645
