19
Generated by QM7 dataset
N 2.4430947303771973 5.377763748168945 -2.998579740524292
C 5.003106594085693 5.580758094787598 -1.9925650358200073
C 6.123695373535156 2.9662275314331055 -1.4719077348709106
C 8.728815078735352 3.1664061546325684 -0.3619203567504883
C 10.661853790283203 1.1438512802124023 -0.8893429040908813
C 10.960657119750977 3.7234785556793213 -2.0363500118255615
N 12.95409107208252 5.389404296875 -1.118547797203064
H 1.7294584512710571 7.143202781677246 -3.2890493869781494
H 1.2983741760253906 4.5406904220581055 -1.695518970489502
H 4.972568511962891 6.708263397216797 -0.2553586959838867
H 6.184128761291504 6.595729827880859 -3.3587992191314697
H 6.160847187042236 1.8604921102523804 -3.2236838340759277
H 4.922452926635742 1.935438632965088 -0.1339815855026245
H 8.693458557128906 3.9584848880767822 1.5283726453781128
H 10.165139198303223 -0.3964267373085022 -2.148883104324341
H 11.922565460205078 0.5894244909286499 0.6250647306442261
H 10.616254806518555 3.859217643737793 -4.059358596801758
H 13.29036808013916 5.131097793579102 0.7585171461105347
H 12.449628829956055 7.237745761871338 -1.32350754737854
