17
Generated by QM7 dataset
C 1.6788893938064575 -0.1922985315322876 -0.04028896242380142
C 4.573553085327148 -0.14875924587249756 -0.13039110600948334
O 5.471645355224609 -1.7386425733566284 1.8762524127960205
C 5.565073490142822 -1.2885286808013916 -2.629213809967041
O 4.843084812164307 -3.883406162261963 -2.8406174182891846
C 5.53922176361084 2.522123098373413 0.2117627114057541
C 7.200971603393555 3.335139751434326 1.9441313743591309
H 0.8479390144348145 0.8789682984352112 -1.6028656959533691
H 0.9813348054885864 0.6104949116706848 1.7377732992172241
H 0.9586958885192871 -2.1324048042297363 -0.118013396859169
H 4.828609466552734 -1.0175230503082275 3.4415502548217773
H 7.633756637573242 -1.2368634939193726 -2.6906864643096924
H 4.837245464324951 -0.2730654180049896 -4.277546405792236
H 5.246730327606201 -4.612122058868408 -1.18992280960083
H 4.801113605499268 3.904306411743164 -1.1241791248321533
H 8.065388679504395 2.0726704597473145 3.3105545043945312
H 7.770610332489014 5.306275367736816 2.0023915767669678
