15
Generated by QM7 dataset
C 4.230038642883301 -0.15909604728221893 2.6392104625701904
C 3.9605824947357178 1.1659420728683472 0.10161057114601135
N 5.7423295974731445 3.259720802307129 -0.1543339341878891
C 5.278817653656006 5.638697147369385 0.7678713202476501
N 3.2852888107299805 6.345719337463379 1.961233377456665
C 8.059833526611328 2.7464711666107178 -1.2595213651657104
O 8.781822204589844 0.6825501918792725 -2.0238211154937744
H 2.889655828475952 -1.727682113647461 2.7751572132110596
H 3.864849090576172 1.1398828029632568 4.206945896148682
H 6.139984607696533 -0.9171029925346375 2.8818135261535645
H 2.0298871994018555 1.8742114305496216 -0.12345580756664276
H 4.276771545410156 -0.20365577936172485 -1.4195622205734253
H 6.794604778289795 7.026322841644287 0.42611435055732727
H 2.0181896686553955 4.913760185241699 2.1942176818847656
H 9.296488761901855 4.419124603271484 -1.388816475868225
