17
Generated by QM7 dataset
C 1.889726161956787 0.0 0.0
C 4.618490695953369 0.0 0.0
C 6.86756706237793 0.0 0.0
C 9.596331596374512 0.0 0.0
C 10.62460708618164 -1.2441389560699463 2.393073558807373
C 10.625192642211914 -1.3292711973190308 -2.3486461639404297
O 10.48355770111084 2.5479178428649902 -0.030897023156285286
H 1.1451551914215088 1.9291647672653198 0.022034207358956337
H 1.1451929807662964 -0.9836969375610352 1.6596897840499878
H 1.1452118158340454 -0.9455055594444275 -1.681723952293396
H 9.974276542663574 -0.2445683628320694 4.088176727294922
H 12.694292068481445 -1.1753718852996826 2.431964159011841
H 10.031082153320312 -3.221435070037842 2.5491838455200195
H 9.970648765563965 -0.3957275450229645 -4.079975605010986
H 10.03641128540039 -3.3128600120544434 -2.4310948848724365
H 12.6950101852417 -1.2563655376434326 -2.392374277114868
H 9.563166618347168 3.413790225982666 -1.3649680614471436
