12
Generated by QM7 dataset
C 1.8449018001556396 -0.000453534274129197 0.11714412271976471
C 4.672612190246582 -0.11478196829557419 -0.05128716677427292
C 5.965997695922852 -2.2805404663085938 0.2385779172182083
C 5.971553325653076 2.36238431930542 -0.5677871108055115
O 4.708573818206787 4.296972751617432 -0.8198198676109314
C 8.711562156677246 2.5283212661743164 -0.7786616683006287
N 10.904399871826172 2.5920238494873047 -0.9354144334793091
H 1.2594835758209229 1.2646992206573486 1.6464049816131592
H 1.0182222127914429 -1.8600385189056396 0.49522164463996887
H 1.0393682718276978 0.6904681324958801 -1.6592929363250732
H 4.986552715301514 -4.048473834991455 0.6106839179992676
H 8.012042045593262 -2.406585216522217 0.12421169877052307
