15
Generated by QM7 dataset
C 1.8232455253601074 -0.13982084393501282 0.2377464473247528
C 4.6750311851501465 -0.004421959165483713 -0.10841359198093414
C 5.706821918487549 -2.227268934249878 -1.693648099899292
N 6.793905735015869 -1.1591013669967651 -4.066369533538818
C 6.547145366668701 1.2616567611694336 -3.758173942565918
N 5.303478717803955 2.172788143157959 -1.6793618202209473
O 6.717296123504639 4.008109092712402 -0.41265949606895447
H 1.1285066604614258 1.5315852165222168 1.2409831285476685
H 1.29682457447052 -1.8155543804168701 1.3296680450439453
H 0.8406068682670593 -0.2226853221654892 -1.583514928817749
H 5.614565372467041 0.06865374743938446 1.7372063398361206
H 4.244362831115723 -3.6190524101257324 -2.1586153507232666
H 7.212649822235107 -3.201857566833496 -0.6618009805679321
H 7.252315521240234 2.691990375518799 -5.098348617553711
H 5.5005202293396 5.377536773681641 -0.18092237412929535
