13
Generated by QM7 dataset
C 1.7848652601242065 -0.08019997924566269 0.02834589220583439
C 4.60507345199585 -0.006292787846177816 0.05718311294913292
C 5.931888103485107 2.150489330291748 0.0
C 8.58884334564209 2.150489330291748 0.0
C 10.837919235229492 2.150489330291748 0.0
C 13.732583045959473 2.1498091220855713 1.8897260815720074e-05
C 16.00165367126465 2.1492233276367188 1.8897260815720074e-05
H 1.1342703104019165 -2.0371813774108887 -0.1358902007341385
H 1.0292960405349731 0.9700153470039368 -1.5853290557861328
H 1.012212872505188 0.7008427381515503 1.7798573970794678
H 5.580228805541992 -1.815667748451233 0.11655830591917038
H 4.969563961029053 3.962906837463379 -0.058657098561525345
H 18.013002395629883 2.1483919620513916 3.779452163144015e-05
