19
Generated by QM7 dataset
C 6.435972690582275 -1.2204229831695557 -4.225276470184326
N 8.304268836975098 0.1914670467376709 -2.7738912105560303
C 7.156449794769287 2.447214126586914 -1.636899709701538
C 8.989635467529297 3.8597278594970703 0.015798110514879227
N 11.306987762451172 2.631916046142578 0.9341483116149902
C 11.568506240844727 4.654660224914551 -0.9243595600128174
C 12.663980484008789 7.118636131286621 -0.11704963445663452
H 7.318550109863281 -2.9147324562072754 -5.01705265045166
H 5.692951202392578 -0.09552565962076187 -5.794920921325684
H 4.864041805267334 -1.8382688760757446 -3.030686140060425
H 9.713910102844238 0.7433615922927856 -3.963247060775757
H 5.54451322555542 1.8886301517486572 -0.4603750705718994
H 6.456853866577148 3.7265777587890625 -3.1084482669830322
H 8.034321784973145 5.07822322845459 1.356218695640564
H 11.372654914855957 0.8739038705825806 0.11449850350618362
H 12.184198379516602 4.109776496887207 -2.7963032722473145
H 12.18408489227295 7.590897560119629 1.840309739112854
H 11.959471702575684 8.636823654174805 -1.332937240600586
H 14.725823402404785 7.071676254272461 -0.2798684537410736
