16
Generated by QM7 dataset
N 1.7994728088378906 -0.34122785925865173 -0.028308097273111343
C 4.558283805847168 -0.26788756251335144 0.07052458077669144
C 5.538182735443115 2.4485180377960205 -0.15735749900341034
C 8.37554931640625 2.5434579849243164 -0.04253773391246796
C 9.836817741394043 3.400524377822876 -1.9255553483963013
C 12.512027740478516 3.4540603160858154 -1.704400658607483
C 14.770515441894531 3.5026073455810547 -1.5250656604766846
H 1.2112199068069458 -2.1730904579162598 0.07290563732385635
H 1.1959887742996216 0.320516437292099 -1.7339937686920166
H 5.3233208656311035 -1.4373445510864258 -1.458622932434082
H 5.181704521179199 -1.100633144378662 1.8613991737365723
H 4.7832746505737305 3.6016478538513184 1.3913108110427856
H 4.853534698486328 3.2939438819885254 -1.9229475259780884
H 9.242140769958496 1.8868916034698486 1.7043250799179077
H 9.011650085449219 4.080580234527588 -3.6770668029785156
H 16.777347564697266 3.5464680194854736 -1.3622090816497803
