13
Generated by QM7 dataset
C 1.9957020282745361 0.106221504509449 -0.037492167204618454
C 4.796087265014648 -0.08532113581895828 -0.14892931282520294
C 6.203158378601074 -2.158048391342163 -0.03027341328561306
C 8.890424728393555 -1.4326391220092773 -0.227787584066391
C 8.623481750488281 1.3987563848495483 -0.4847525358200073
O 10.40315055847168 2.860894203186035 -0.7194565534591675
O 6.138359546661377 2.161808967590332 -0.42380887269973755
H 1.1083621978759766 -1.7607712745666504 0.04544791206717491
H 1.27450692653656 1.0813769102096558 -1.7126965522766113
H 1.4154993295669556 1.1690223217010498 1.638600468635559
H 5.516280651092529 -4.068202495574951 0.17729410529136658
H 9.93453598022461 -1.9047495126724243 1.4887640476226807
H 9.771452903747559 -2.229857921600342 -1.9152374267578125
