16
Generated by QM7 dataset
C 2.8682262897491455 -0.8074421882629395 1.638373613357544
C 5.686960697174072 -0.3465190827846527 1.3622846603393555
N 6.27283239364624 1.592018723487854 -0.5066166520118713
O 5.543927192687988 4.043635845184326 0.3312123119831085
C 3.6751394271850586 5.00550651550293 -1.358731985092163
C 8.67017650604248 1.6350855827331543 -1.5603468418121338
O 10.128081321716309 -0.1593039184808731 -1.7258301973342896
H 2.521820545196533 -2.343052625656128 2.978529691696167
H 2.0271847248077393 -1.327646017074585 -0.17774763703346252
H 1.8943370580673218 0.8775888085365295 2.3344919681549072
H 6.607143878936768 -2.1150569915771484 0.7992974519729614
H 6.512430667877197 0.2303198277950287 3.174569845199585
H 3.226839542388916 6.9397735595703125 -0.7883748412132263
H 1.9501785039901733 3.870934009552002 -1.2586520910263062
H 4.392403602600098 5.041335582733154 -3.2993674278259277
H 9.124391555786133 3.4886045455932617 -2.3977222442626953
