10
Generated by QM7 dataset
N 1.8608511686325073 -0.06872934103012085 -0.0
C 4.398507595062256 -0.11206076294183731 -0.0
N 5.865917682647705 -2.027373790740967 -0.0
C 5.765989303588867 2.220787286758423 -0.0
C 6.933310508728027 4.165561199188232 -0.0
C 8.42623233795166 6.645146369934082 -0.0
N 9.526033401489258 8.541184425354004 0.0
H 0.9013804793357849 1.5847054719924927 0.0
H 0.8410604000091553 -1.6805145740509033 0.0
H 4.813264846801758 -3.645035982131958 -0.0
