19
Generated by QM7 dataset
C 3.1819019317626953 -0.6359306573867798 2.9034698009490967
C 4.310333251953125 -0.10520105063915253 0.30921587347984314
C 4.969318389892578 2.644804000854492 -0.08373376727104187
C 2.7943191528320312 4.472301483154297 -0.1609479784965515
C 7.378284454345703 3.372462034225464 -0.40759503841400146
O 8.063990592956543 5.830277442932129 -0.8419296741485596
C 10.586359024047852 6.338311672210693 -0.04593924060463905
H 2.8712687492370605 -2.667405128479004 3.1391375064849854
H 1.3564454317092896 0.3063057065010071 3.140894889831543
H 4.443294048309326 -0.00034015069832094014 4.41372013092041
H 2.9761297702789307 -0.7028080224990845 -1.1610476970672607
H 5.994022369384766 -1.2939144372940063 0.075872503221035
H 1.3875125646591187 3.8522822856903076 -1.5459282398223877
H 3.374389410018921 6.385800361633301 -0.6887673735618591
H 1.882847547531128 4.5917887687683105 1.692665457725525
H 8.942090034484863 2.0503907203674316 -0.40101876854896545
H 10.97027587890625 8.34147834777832 -0.3785877227783203
H 11.943635940551758 5.227284908294678 -1.1432653665542603
H 10.807437896728516 5.959345817565918 1.9758976697921753
