13
Generated by QM7 dataset
O 2.073331832885742 -0.4182341992855072 -1.081887125968933
N 4.536949157714844 -0.13343356549739838 -0.2503509223461151
C 5.606382846832275 2.1899280548095703 0.06861595809459686
C 8.008584022521973 2.348834991455078 0.8387171626091003
C 9.532572746276855 -0.005404616706073284 1.3511730432510376
N 8.227678298950195 -2.4402410984039307 0.8880956768989563
C 5.9126505851745605 -2.297623634338379 0.1348508596420288
H 1.133684515953064 -0.5513086915016174 0.4958263337612152
H 4.423225402832031 3.8068153858184814 -0.3499772846698761
H 8.915633201599121 4.168509006500244 1.094000220298767
H 11.231454849243164 0.04013778269290924 0.16852577030658722
H 10.15334701538086 0.024245185777544975 3.3260881900787354
H 4.838776111602783 -4.040517807006836 -0.254432737827301
