15
Generated by QM7 dataset
C 2.096348762512207 0.22398923337459564 0.8502633571624756
C 4.313828945159912 0.21066667139530182 -0.9740782380104065
N 5.5500688552856445 -1.8687502145767212 -1.483794093132019
O 4.574989318847656 -3.9475812911987305 -0.1711902916431427
N 4.8698811531066895 2.5713882446289062 -2.0106496810913086
C 5.783053398132324 2.621711492538452 -4.636707782745361
C 7.546111106872559 3.1440317630767822 -2.502110719680786
H 1.307955026626587 2.1260364055633545 1.034889578819275
H 2.7256276607513428 -0.41203588247299194 2.7134010791778564
H 0.6153892874717712 -1.03793203830719 0.1525953859090805
H 5.668214797973633 -5.318501949310303 -0.7362750768661499
H 5.033342361450195 4.1928863525390625 -5.702645301818848
H 5.861401557922363 0.8120720386505127 -5.58181619644165
H 8.879426002502441 1.7061392068862915 -1.928087592124939
H 8.029862403869629 5.080774307250977 -2.0745036602020264
