17
Generated by QM7 dataset
C 2.719259262084961 3.0938785076141357 3.544691562652588
O 5.264795780181885 2.396418333053589 3.0355048179626465
C 6.143310546875 3.4547595977783203 0.7157715559005737
C 8.851420402526855 2.619462728500366 0.32917138934135437
C 10.219903945922852 3.8249945640563965 -1.9143871068954468
O 12.246786117553711 4.710879325866699 -0.30755293369293213
C 10.854303359985352 3.9631903171539307 1.9277852773666382
H 2.120877504348755 2.148524045944214 5.281311988830566
H 1.4774445295333862 2.4973487854003906 2.004772663116455
H 2.579627275466919 5.139998435974121 3.8218576908111572
H 5.992605209350586 5.520116806030273 0.7930802702903748
H 4.962364196777344 2.7618157863616943 -0.8379045724868774
H 9.05501937866211 0.5559385418891907 0.354153573513031
H 9.259601593017578 5.40688419342041 -2.838198661804199
H 10.901509284973145 2.4958558082580566 -3.3435301780700684
H 11.977499961853027 2.7311832904815674 3.149644374847412
H 10.22606372833252 5.618628025054932 2.9949703216552734
