15
Generated by QM7 dataset
C 3.537529468536377 -1.344124436378479 0.6444910764694214
C 6.344547748565674 -1.0127986669540405 1.1543959379196167
C 7.45136022567749 1.1606320142745972 -0.3861277401447296
C 10.241427421569824 1.506905436515808 0.10805454105138779
O 11.528255462646484 0.22960172593593597 1.545285701751709
C 11.530542373657227 3.62190580368042 -1.3082762956619263
O 10.370759963989258 4.958225727081299 -2.7861366271972656
H 2.784001350402832 -2.903942108154297 1.774074912071228
H 3.1921443939208984 -1.7702387571334839 -1.3498691320419312
H 2.487748861312866 0.3693658709526062 1.1346861124038696
H 7.335160732269287 -2.7759320735931396 0.7022411227226257
H 6.636491298675537 -0.6653536558151245 3.176440715789795
H 6.484255313873291 2.9260141849517822 0.09970194846391678
H 7.192486763000488 0.7905291318893433 -2.406981945037842
H 13.557027816772461 3.827394723892212 -0.8826910853385925
