14
Generated by QM7 dataset
C 6.962998390197754 -2.0141079425811768 0.8921964168548584
O 5.134196758270264 -0.04021337255835533 0.8505090475082397
C 5.999238014221191 2.3576223850250244 0.40846431255340576
C 8.367537498474121 3.1353769302368164 -0.017102021723985672
C 8.842330932617188 5.845678806304932 -0.4527027904987335
N 11.093674659729004 6.6888556480407715 -0.8942561745643616
O 10.975302696228027 9.309962272644043 -1.2346147298812866
H 5.971723556518555 -3.793039321899414 1.2493168115615845
H 8.327040672302246 -1.7228633165359497 2.4207959175109863
H 7.923999786376953 -2.1730339527130127 -0.9335247278213501
H 4.394237041473389 3.635908603668213 0.4488666355609894
H 9.99604606628418 1.902746319770813 -0.07148834317922592
H 7.1868743896484375 7.117048740386963 -0.3847104609012604
H 12.737188339233398 9.745733261108398 -1.5584949254989624
