19
Generated by QM7 dataset
C -2.8942856788635254 1.4340375661849976 0.21359574794769287
C -2.902846097946167 -1.423587441444397 -0.15546776354312897
C -0.5427104234695435 -2.7761778831481934 0.8104846477508545
C 1.7814069986343384 -2.175036907196045 -0.7843497395515442
O 3.1690139770507812 -0.0023621576838195324 -0.03802128881216049
C 1.8043293952941895 2.17573618888855 0.7350278496742249
C -0.5529905557632446 2.780637502670288 -0.8069697618484497
H -4.571209907531738 2.214721202850342 -0.7242753505706787
H -3.1120388507843018 1.8618338108062744 2.231785535812378
H -3.168484926223755 -1.8500796556472778 -2.167402505874634
H -4.558926582336426 -2.1991498470306396 0.821369469165802
H -0.2183956503868103 -2.3335282802581787 2.8060731887817383
H -0.9061048030853271 -4.812187671661377 0.6792242527008057
H 3.106048345565796 -3.7610085010528564 -0.6425824761390686
H 1.3034197092056274 -2.0064544677734375 -2.793166399002075
H 1.372092366218567 2.011972427368164 2.7543137073516846
H 3.1300289630889893 3.7572858333587646 0.5601148009300232
H -0.9094873666763306 4.817686557769775 -0.6697945594787598
H -0.27627795934677124 2.3353424072265625 -2.8092100620269775
