16
Generated by QM7 dataset
C 3.0643043518066406 -3.3682668209075928 2.306089401245117
C 5.066639423370361 -1.8791247606277466 0.8547609448432922
N 6.886728763580322 -3.6403117179870605 -0.28704941272735596
C 3.9044954776763916 -0.13983973860740662 -1.1740679740905762
O 2.5257134437561035 -1.571004867553711 -3.037659168243408
C -0.026853008195757866 -1.4611740112304688 -2.8963265419006348
O -1.2823303937911987 -0.34022629261016846 -1.3209563493728638
H 1.6841238737106323 -2.0874481201171875 3.1661226749420166
H 3.9282493591308594 -4.468522071838379 3.83351731300354
H 2.04152774810791 -4.690281391143799 1.0847594738006592
H 6.101283073425293 -0.6906760334968567 2.1991498470306396
H 5.998992443084717 -4.642282485961914 -1.6766972541809082
H 7.462679862976074 -4.92776346206665 1.0243260860443115
H 5.410040378570557 0.86150723695755 -2.185676097869873
H 2.7255520820617676 1.3160430192947388 -0.2877863943576813
H -0.8359392285346985 -2.586109161376953 -4.4490766525268555
