14
Generated by QM7 dataset
C 1.7303277254104614 0.558603048324585 -0.512814998626709
C 4.485718727111816 0.2808133065700531 -1.1218925714492798
O 5.335490703582764 -1.4437319040298462 -2.4132368564605713
C 6.202421188354492 2.2360939979553223 -0.06483650207519531
C 7.820234775543213 3.785386085510254 -1.8349241018295288
C 5.692233085632324 5.020813465118408 -0.42705920338630676
H 0.8545530438423157 1.8631565570831299 -1.8519883155822754
H 1.491957664489746 1.2623748779296875 1.4148569107055664
H 0.8081414103507996 -1.2857319116592407 -0.6477603316307068
H 7.097055435180664 1.6628456115722656 1.6901332139968872
H 7.607678413391113 3.485373020172119 -3.8518664836883545
H 9.740612030029297 4.199103832244873 -1.2537199258804321
H 6.170239448547363 6.287572383880615 1.1105542182922363
H 4.058791637420654 5.6083292961120605 -1.513840675354004
