16
Generated by QM7 dataset
C 1.834470510482788 -0.024925487115979195 0.022544432431459427
C 4.6992387771606445 0.006991986650973558 0.043728262186050415
C 5.956284523010254 1.9775984287261963 1.8095828294754028
C 8.019695281982422 -0.013606027700006962 2.3345675468444824
C 6.033461093902588 -2.06259822845459 1.6661903858184814
C 6.975924015045166 -4.225125312805176 0.2899028956890106
N 7.730982780456543 -5.964183330535889 -0.8135837912559509
H 1.1334577798843384 -1.633498191833496 -1.0735156536102295
H 1.0945860147476196 1.7033991813659668 -0.8411737680435181
H 1.0569427013397217 -0.1670517921447754 1.9349662065505981
H 5.438971996307373 0.13267767429351807 -1.895584225654602
H 4.839626312255859 2.4720263481140137 3.482991933822632
H 6.6032891273498535 3.7143890857696533 0.8978466987609863
H 9.628607749938965 0.10521995276212692 1.0325841903686523
H 8.734502792358398 -0.05591699481010437 4.2730865478515625
H 4.919089317321777 -2.6203887462615967 3.32820463180542
