13
Generated by QM7 dataset
C 1.7027188539505005 4.425152778625488 -3.140063524246216
C 3.747969388961792 3.8114264011383057 -1.7994917631149292
O 5.405523777008057 5.654873371124268 -0.9020796418190002
C 7.415020942687988 4.793044567108154 0.4748881757259369
O 7.9389472007751465 2.610240936279297 1.0083767175674438
C 8.915538787841797 7.0267767906188965 1.2511498928070068
C 11.00302505493164 6.764766216278076 2.6581833362579346
H 0.4267946481704712 2.9757707118988037 -3.8273568153381348
H 1.265587329864502 6.380320072174072 -3.5741524696350098
H 4.242132663726807 1.881581425666809 -1.3316333293914795
H 8.260881423950195 8.868597984313965 0.6423556804656982
H 11.661726951599121 4.919693946838379 3.2717018127441406
H 12.098688125610352 8.401854515075684 3.227160930633545
