13
Generated by QM7 dataset
C 1.8018916845321655 -0.016327233985066414 0.14641597867012024
C 4.62034273147583 0.10435067862272263 0.1746673882007599
C 5.946987152099609 2.169311046600342 -0.47180792689323425
S 9.210657119750977 2.0934953689575195 -0.40324866771698
O 9.767181396484375 5.084270477294922 -0.23151035606861115
O 10.116063117980957 1.0663913488388062 1.961252212524414
O 10.185302734375 1.2345203161239624 -2.80558180809021
H 1.173293113708496 -1.4937717914581299 -1.1565691232681274
H 0.9486803412437439 1.7725820541381836 -0.44554072618484497
H 1.0977041721343994 -0.47256380319595337 2.0363121032714844
H 5.59914493560791 -1.6095175743103027 0.7598966956138611
H 5.066091060638428 3.9071033000946045 -1.0799784660339355
H 11.202655792236328 5.310262680053711 0.9182935357093811
