13
Generated by QM7 dataset
N 1.9029542207717896 0.027117570862174034 0.06959861516952515
C 4.667623519897461 0.0 0.0
C 5.635616779327393 -1.4528025388717651 -2.3413517475128174
O 8.286335945129395 -1.9532020092010498 -2.176907777786255
C 5.578509330749512 2.5722384452819824 0.0
C 6.329259872436523 4.692322254180908 0.0
H 1.337340235710144 0.9759112596511841 1.6475955247879028
H 1.2624692916870117 -1.7766637802124023 0.27195048332214355
H 5.3641767501831055 -0.9574297666549683 1.701244831085205
H 5.27267599105835 -0.423544317483902 -4.102727890014648
H 4.697500228881836 -3.2925264835357666 -2.478602647781372
H 9.135371208190918 -0.3203085660934448 -2.2073135375976562
H 6.98132848739624 6.597865581512451 -0.0011338356416672468
