15
Generated by QM7 dataset
C 1.8254565000534058 0.13628704845905304 -0.315451979637146
C 4.644021034240723 -0.04325583204627037 0.037303194403648376
N 5.525049209594727 -0.053592633455991745 2.6983211040496826
C 6.1563310623168945 -1.5226279497146606 -1.8754209280014038
C 6.299779891967773 1.3069535493850708 -1.8786145448684692
O 8.580245018005371 2.3804690837860107 -0.8593718409538269
H 1.295652985572815 0.18343572318553925 -2.3156137466430664
H 1.095700979232788 1.855087399482727 0.575534999370575
H 0.8883980512619019 -1.4941498041152954 0.5480394959449768
H 7.27331018447876 -0.8591451048851013 2.809682607650757
H 4.38798189163208 -1.1911888122558594 3.763465166091919
H 5.168211936950684 -2.418339252471924 -3.4299662113189697
H 7.818817615509033 -2.553927183151245 -1.2722581624984741
H 5.395035743713379 2.30525803565979 -3.423578977584839
H 8.272087097167969 2.833153009414673 0.9033835530281067
