18
Generated by QM7 dataset
N 2.0928149223327637 -0.2969326674938202 -0.11090802401304245
C 4.751470565795898 0.2536957263946533 -0.002853486454114318
C 6.337026596069336 -1.107001543045044 -2.047877311706543
C 8.407410621643066 -0.6038619875907898 0.01721540465950966
C 6.247491359710693 -1.3957139253616333 1.89155912399292
C 8.560043334960938 2.287419080734253 0.2328520566225052
C 5.7245097160339355 2.9272425174713135 0.21028871834278107
H 1.09738290309906 0.38574978709220886 1.3895912170410156
H 1.6710847616195679 -2.1734118461608887 -0.2168082743883133
H 6.579100608825684 -0.12595024704933167 -3.85239577293396
H 5.909041404724121 -3.0997743606567383 -2.4235169887542725
H 10.142499923706055 -1.7089927196502686 -0.024339672178030014
H 5.809301376342773 -3.4204232692718506 1.952899694442749
H 6.403941631317139 -0.6885595321655273 3.828623056411743
H 9.471552848815918 2.886178731918335 1.9899194240570068
H 9.554190635681152 3.133354902267456 -1.3710341453552246
H 5.2177605628967285 4.108170032501221 -1.4105861186981201
H 5.137277126312256 3.868760824203491 1.9559231996536255
