15
Generated by QM7 dataset
C 5.506529808044434 -2.077432632446289 -0.9157423973083496
N 4.447451591491699 0.1610613614320755 0.29572322964668274
C 6.256807804107666 2.270808219909668 0.3649628162384033
C 6.488034725189209 3.9619808197021484 -1.903899073600769
C 5.266798973083496 4.949268341064453 0.4721291661262512
C 6.588473320007324 6.770492076873779 1.981302261352539
N 7.6709465980529785 8.23584270477295 3.2038228511810303
H 4.088686943054199 -3.5822594165802 -0.949662983417511
H 7.161457538604736 -2.774892807006836 0.11143714934587479
H 6.047784805297852 -1.6811949014663696 -2.872667074203491
H 3.889056444168091 -0.3110489249229431 2.082383632659912
H 7.992918014526367 1.8787468671798706 1.4007784128189087
H 5.274471282958984 3.6029140949249268 -3.515287399291992
H 8.359297752380371 4.626767635345459 -2.4090795516967773
H 3.2316205501556396 5.193591117858887 0.4174216091632843
