14
Generated by QM7 dataset
O 4.026628494262695 -0.2369905561208725 -2.6173462867736816
C 4.311409950256348 0.29891687631607056 0.010317904874682426
C 6.425049781799316 2.2225446701049805 0.37582874298095703
N 6.07135009765625 4.60754919052124 -1.0407477617263794
C 5.465163707733154 6.130479335784912 1.199371337890625
C 6.170673847198486 3.806626558303833 2.789330244064331
O 6.297776699066162 3.3572118282318115 5.035572052001953
H 2.833587646484375 -1.6301910877227783 -2.756751298904419
H 4.758122444152832 -1.4593220949172974 1.0050508975982666
H 2.496025800704956 1.0086979866027832 0.7079669833183289
H 8.309957504272461 1.4084885120391846 0.11623705178499222
H 4.699030876159668 4.489157676696777 -2.3951523303985596
H 6.690272808074951 7.766169548034668 1.4834728240966797
H 3.4794015884399414 6.673246383666992 1.3663475513458252
