18
Generated by QM7 dataset
C 1.7924052476882935 1.5134060382843018 2.0253705978393555
C 4.637444496154785 1.214848279953003 2.1355416774749756
O 5.740099906921387 2.7713778018951416 0.23823776841163635
C 8.468259811401367 2.7195427417755127 0.10195072740316391
C 9.70716381072998 4.589180946350098 -1.763076663017273
N 11.717133522033691 5.080056190490723 0.12933285534381866
C 9.951921463012695 4.217301845550537 2.123560905456543
H 0.8716740012168884 0.33347997069358826 3.449449300765991
H 1.0767848491668701 0.9883456826210022 0.1569606512784958
H 1.255722999572754 3.4858644008636475 2.34318470954895
H 5.161843776702881 -0.7578368782997131 1.7927643060684204
H 5.342293739318848 1.7860746383666992 3.9956748485565186
H 9.166929244995117 0.7805891633033752 -0.15444731712341309
H 8.561479568481445 6.258017063140869 -2.203137159347534
H 10.381966590881348 3.7641077041625977 -3.5346193313598633
H 13.251288414001465 3.931159496307373 -0.08286449313163757
H 10.826940536499023 3.078099250793457 3.60911226272583
H 8.88772201538086 5.758052349090576 3.0086896419525146
