14
Generated by QM7 dataset
N 3.032349109649658 0.9820528626441956 -2.200869560241699
C 5.542358875274658 0.5425214767456055 -1.7889659404754639
O 7.095373630523682 0.873412549495697 -3.472749710083008
C 6.169426918029785 -0.35795193910598755 0.853721559047699
C 8.922115325927734 -0.8799321055412292 1.2092735767364502
C 10.663856506347656 1.026612639427185 2.403202533721924
O 9.683561325073242 -1.0800352096557617 3.8034706115722656
H 1.6877710819244385 0.7164707779884338 -0.8722786903381348
H 2.5068349838256836 1.5756725072860718 -3.9414963722229004
H 5.106644630432129 -2.0987110137939453 1.2091412544250488
H 5.512142181396484 1.0764635801315308 2.196201801300049
H 9.687284469604492 -2.233410596847534 -0.1206023246049881
H 9.943946838378906 2.887407064437866 2.8560187816619873
H 12.644384384155273 0.9802576303482056 1.8869860172271729
