11
Generated by QM7 dataset
N 1.5930957794189453 0.02462313137948513 -0.1492694616317749
C 3.783931016921997 0.010223418474197388 -0.11408276855945587
C 6.6816558837890625 -0.02284678816795349 -0.05068245530128479
C 8.949780464172363 -0.04593924060463905 -0.003590479725971818
C 11.653090476989746 -0.059072837233543396 0.048112425953149796
C 13.068646430969238 -1.467674732208252 -1.9837967157363892
N 12.982550621032715 1.2836531400680542 -1.9635955095291138
H 12.523346900939941 0.0362638458609581 1.90372896194458
H 12.01695728302002 -2.3822264671325684 -3.4831430912017822
H 14.858047485351562 -2.3380446434020996 -1.508190393447876
H 14.634737968444824 2.0294902324676514 -1.3033629655838013
