15
Generated by QM7 dataset
C 1.8954142332077026 -0.204203799366951 0.37913575768470764
C 4.69462776184082 0.14970409870147705 -0.17668938636779785
C 5.284486770629883 0.22200502455234528 -2.9911718368530273
C 6.029114723205566 2.178778648376465 1.4194300174713135
C 7.451776027679443 -0.11139935255050659 2.5019783973693848
O 9.097198486328125 -0.49214136600494385 4.040631294250488
O 6.181577682495117 -1.8144583702087402 1.0635567903518677
H 1.5427346229553223 -0.3708776533603668 2.4110636711120605
H 1.1703073978424072 -1.9184688329696655 -0.5253060460090637
H 0.7993919253349304 1.4032728672027588 -0.32352110743522644
H 7.322632312774658 0.3506386876106262 -3.3360090255737305
H 4.387226104736328 1.8562779426574707 -3.8890185356140137
H 4.597382545471191 -1.4866286516189575 -3.93837833404541
H 4.872772216796875 3.168957233428955 2.8133296966552734
H 7.2402777671813965 3.507558584213257 0.4054029583930969
