14
Generated by QM7 dataset
C 2.1120901107788086 -1.040955662727356 0.8397186994552612
C 4.7897186279296875 -1.2790989875793457 -0.09100920706987381
O 5.532626628875732 -3.2202444076538086 -1.1363301277160645
C 6.4492573738098145 1.0198473930358887 0.17179499566555023
C 9.191646575927734 0.3651706874370575 0.4054407477378845
N 10.460711479187012 1.0462846755981445 2.381772994995117
O 12.958154678344727 0.21739409863948822 2.1120901107788086
H 2.11331844329834 -0.42806077003479004 2.810816526412964
H 1.170968770980835 -2.8764655590057373 0.725692629814148
H 1.0936979055404663 0.31989285349845886 -0.3303808271884918
H 5.864254951477051 2.1006574630737305 1.8362658023834229
H 6.189892292022705 2.192517042160034 -1.5118564367294312
H 10.069499969482422 -0.6828714609146118 -1.1710821390151978
H 13.73058032989502 0.7524511814117432 3.6988365650177
