15
Generated by QM7 dataset
C 4.4997968673706055 -0.9212036728858948 -2.6535911560058594
C 4.627655982971191 0.06128381937742233 0.03577251732349396
C 5.666457176208496 2.685981035232544 0.08475421369075775
N 4.287429332733154 4.70976448059082 0.2149941474199295
N 5.935705184936523 6.84632682800293 0.1864781677722931
C 8.231552124023438 6.030569553375244 0.022223180159926414
C 8.418710708618164 3.233661651611328 -0.07951967418193817
H 3.6998002529144287 -2.827861785888672 -2.6873605251312256
H 6.380584716796875 -0.9957723021507263 -3.5131142139434814
H 3.318075656890869 0.29986172914505005 -3.835085868835449
H 5.836683750152588 -1.1568714380264282 1.1906408071517944
H 2.73675799369812 0.06821911036968231 0.8764927983283997
H 9.913673400878906 7.2429046630859375 -0.040610212832689285
H 9.235922813415527 2.609617233276367 -1.8645172119140625
H 9.453808784484863 2.4942872524261475 1.541128396987915
