18
Generated by QM7 dataset
C 2.257523536682129 -0.6485351324081421 0.2993893027305603
C 4.234006881713867 -1.9654663801193237 1.9168626070022583
C 6.8894500732421875 -0.9818072319030762 1.3438409566879272
N 8.820391654968262 -2.2225069999694824 2.8693790435791016
C 9.830714225769043 -4.620115756988525 2.0103094577789307
C 9.437765121459961 -1.2636409997940063 5.214907169342041
O 8.54439640045166 0.6404470801353455 6.176947593688965
H 0.3711988925933838 -1.3758151531219482 0.7361806035041809
H 2.616779327392578 -0.9662736654281616 -1.7131123542785645
H 2.254915714263916 1.390706181526184 0.64443439245224
H 4.140219688415527 -4.006559371948242 1.5762394666671753
H 3.786217451095581 -1.6741083860397339 3.9188573360443115
H 6.958519458770752 1.0566025972366333 1.717118501663208
H 7.363280296325684 -1.2550048828125 -0.6538074612617493
H 8.300602912902832 -6.005115032196045 1.9081131219863892
H 11.282099723815918 -5.3199567794799805 3.3030145168304443
H 10.662949562072754 -4.362281799316406 0.13706183433532715
H 10.890151977539062 -2.3914105892181396 6.1971869468688965
