15
Generated by QM7 dataset
C 3.086395263671875 -0.24133692681789398 -0.1078844666481018
C 1.3577115535736084 -2.1975436210632324 1.0830020904541016
O -0.7955369353294373 -2.768089771270752 -0.4454273581504822
C -2.690157413482666 -1.0078098773956299 -0.2891092002391815
C -2.488013505935669 1.4649913311004639 0.21437053382396698
O -0.3266202509403229 2.8819079399108887 0.4091823995113373
C 1.6793240308761597 2.0188701152801514 -1.1827417612075806
H 4.188256740570068 -1.1047149896621704 -1.6356524229049683
H 4.4429731369018555 0.38737496733665466 1.3261909484863281
H 2.414276361465454 -3.9620375633239746 1.3290443420410156
H 0.7629391551017761 -1.6256557703018188 2.988431692123413
H -4.501062870025635 -1.9114580154418945 -0.6061674356460571
H -4.128106594085693 2.6582021713256836 0.5026482343673706
H 3.0082173347473145 3.5938243865966797 -1.3937486410140991
H 0.9643083214759827 1.625712513923645 -3.0919320583343506
