14
Generated by QM7 dataset
C 1.9370826482772827 2.252931594848633 -0.26684823632240295
O -0.3752240240573883 2.2695798873901367 1.137445092201233
N -2.416071653366089 1.6144119501113892 -0.43316301703453064
C -2.6690680980682373 -0.823164701461792 -0.5678815841674805
C -0.9942982792854309 -2.76655912399292 0.705075740814209
C 1.7562925815582275 -2.5373542308807373 0.041800741106271744
C 3.011013984680176 -0.37335318326950073 -0.42900562286376953
H 3.268867254257202 3.462942123413086 0.7531125545501709
H 1.6636015176773071 3.0604870319366455 -2.1540799140930176
H -4.2579874992370605 -1.566148281097412 -1.6907947063446045
H -1.6628834009170532 -4.6167521476745605 0.05508551746606827
H -1.272182583808899 -2.6948816776275635 2.7519893646240234
H 2.8015189170837402 -4.305117607116699 -0.061510585248470306
H 4.999894142150879 -0.4783841669559479 -0.9343184232711792
