18
Generated by QM7 dataset
N 4.700769424438477 -1.163787841796875 2.301403045654297
C 4.223594665527344 0.09514771401882172 -0.10414280742406845
C 5.362815856933594 2.718862295150757 -0.14709627628326416
C 3.85693097114563 4.765190124511719 -0.3063623905181885
C 8.140883445739746 2.904320001602173 0.06804903596639633
C 9.814897537231445 1.548668384552002 -1.7970728874206543
C 9.604249954223633 4.3703694343566895 -1.8937512636184692
H 3.8243331909179688 -2.874500274658203 2.2941086292266846
H 3.8733339309692383 -0.13592800498008728 3.702540397644043
H 2.1766622066497803 0.16742973029613495 -0.42229709029197693
H 5.015503406524658 -1.0407477617263794 -1.6431735754013062
H 1.8175952434539795 4.605640411376953 -0.4317646324634552
H 4.650426864624023 6.656976222991943 -0.2977452576160431
H 8.813153266906738 2.999297618865967 2.005547523498535
H 8.96684455871582 0.47862982749938965 -3.3212881088256836
H 11.552764892578125 0.7320610284805298 -1.0797327756881714
H 11.205830574035645 5.476823329925537 -1.2578961849212646
H 8.605132102966309 5.188167572021484 -3.4858076572418213
