16
Generated by QM7 dataset
C 2.0791711807250977 -0.5419545769691467 2.408928394317627
N 4.346653461456299 -0.24804545938968658 0.8776454925537109
C 5.15031623840332 2.411195993423462 0.7852756977081299
C 7.612156867980957 2.692009449005127 -0.7239729762077332
O 9.670220375061035 1.382372498512268 0.4832974672317505
C 10.800408363342285 2.6469016075134277 2.4010860919952393
O 10.217201232910156 4.723597049713135 3.215085506439209
H 1.5296199321746826 -2.5343873500823975 2.447875738143921
H 0.49809402227401733 0.5247958302497864 1.6096309423446655
H 2.393130302429199 0.07007104158401489 4.35927677154541
H 5.777346134185791 -1.303816556930542 1.6258069276809692
H 5.425970554351807 3.1175944805145264 2.7124183177948
H 3.6789188385009766 3.5494537353515625 -0.12491089850664139
H 8.08653450012207 4.691566467285156 -0.9879677295684814
H 7.3947062492370605 1.8758366107940674 -2.614398241043091
H 12.359999656677246 1.4902191162109375 3.1479434967041016
