18
Generated by QM7 dataset
C 2.7428619861602783 -0.48025500774383545 -0.19103240966796875
N 5.46132755279541 -0.13103361427783966 -0.4613388478755951
C 6.298684120178223 2.103529691696167 0.9582234025001526
C 9.121953964233398 2.302687883377075 0.6199246644973755
O 10.482481002807617 0.03350484371185303 1.24610435962677
C 10.217182159423828 3.8019967079162598 -1.5362340211868286
C 10.478039741516113 4.743420600891113 1.1347427368164062
H 2.1460297107696533 -2.116020917892456 -1.3061598539352417
H 1.6924198865890503 1.1679641008377075 -0.8694251775741577
H 2.231010675430298 -0.8473154306411743 1.7790260314941406
H 5.8713788986206055 0.15406937897205353 -2.3247222900390625
H 5.884172439575195 1.87173593044281 2.9742400646209717
H 5.345203876495361 3.8147335052490234 0.28272193670272827
H 9.384172439575195 -1.4107372760772705 0.8962593078613281
H 8.940577507019043 4.7983927726745605 -2.7860422134399414
H 11.890893936157227 3.0630948543548584 -2.4565305709838867
H 12.325115203857422 4.637897968292236 2.0135598182678223
H 9.377992630004883 6.377882480621338 1.6867316961288452
