16
Generated by QM7 dataset
C 2.0109143257141113 0.126479372382164 -0.019124029204249382
C 4.812187671661377 -0.047526612877845764 -0.09883267432451248
C 6.226288795471191 -2.1305150985717773 -0.10024996846914291
C 8.92795467376709 -1.4196945428848267 -0.106221504509449
N 10.070218086242676 -2.0745413303375244 2.3201489448547363
C 8.718175888061523 1.435152530670166 -0.6254615783691406
O 6.15625524520874 2.216270923614502 -0.10049563646316528
H 1.1320215463638306 -1.7449164390563965 -0.050058845430612564
H 1.3120179176330566 1.1881463527679443 -1.650108814239502
H 1.400551676750183 1.0949828624725342 1.7023597955703735
H 5.5330424308776855 -4.047188758850098 -0.04559909179806709
H 9.974106788635254 -2.354787826538086 -1.6262227296829224
H 9.088600158691406 -1.1731231212615967 3.715711832046509
H 11.851417541503906 -1.3513431549072266 2.3997066020965576
H 9.113790512084961 1.8498151302337646 -2.618631362915039
H 10.018402099609375 2.5631301403045654 0.5242478251457214
