13
Generated by QM7 dataset
O 4.956090450286865 -1.5449267625808716 -1.6297564506530762
C 4.1175055503845215 0.4341645836830139 -0.7780758142471313
C 1.4306550025939941 0.7831780910491943 -0.44841310381889343
C -0.8066484928131104 1.071606993675232 -0.18587346374988556
C 5.814724922180176 2.5076098442077637 0.04268891364336014
C 7.414397239685059 3.862713575363159 -1.899155855178833
C 5.302760601043701 5.241250038146973 -0.6033517718315125
H -2.793034076690674 1.3113754987716675 0.03422294184565544
H 6.725894451141357 2.1291544437408447 1.8416893482208252
H 7.175743579864502 3.3633346557617188 -3.8733339309692383
H 9.340764999389648 4.334408283233643 -1.3866432905197144
H 5.795525550842285 6.659508228302002 0.79136061668396
H 3.6520657539367676 5.714720726013184 -1.7211625576019287
