18
Generated by QM7 dataset
C 5.7578253746032715 -2.2600178718566895 -0.6920366287231445
C 4.570453643798828 0.20031097531318665 0.20528094470500946
O 3.48722505569458 -0.1695273369550705 2.6422905921936035
C 6.478245735168457 2.2966785430908203 0.35806530714035034
N 6.876089572906494 4.026930809020996 -1.7675175666809082
C 5.613374710083008 5.013594627380371 0.4821636378765106
C 6.96694803237915 6.863107204437256 2.1148681640625
H 6.5798563957214355 -2.0519590377807617 -2.5783045291900635
H 4.344574928283691 -3.7701737880706787 -0.7416419386863708
H 7.252844333648682 -2.8807930946350098 0.6001203060150146
H 3.020500421524048 0.70849609375 -1.0722495317459106
H 4.836829662322998 -0.6848556399345398 3.7775626182556152
H 8.15894889831543 1.7770795822143555 1.4083561897277832
H 5.593079090118408 3.73207688331604 -3.180314540863037
H 3.6137044429779053 5.424628734588623 0.3212912380695343
H 8.997458457946777 6.478623867034912 2.2207305431365967
H 6.202062129974365 6.8023905754089355 4.033771514892578
H 6.712949752807617 8.779573440551758 1.3819756507873535
