14
Generated by QM7 dataset
N 4.017236709594727 -0.8916294574737549 -2.535369873046875
C 4.662048816680908 -0.1627054214477539 0.03635833039879799
C 5.540998458862305 2.5216317176818848 0.003987322095781565
C 3.972317695617676 4.603486061096191 -0.20609353482723236
S 5.581079483032227 7.405307769775391 -0.16331012547016144
C 8.414969444274902 5.887479782104492 0.13052338361740112
C 8.13377857208252 3.300916910171509 0.1964559257030487
H 3.620356321334839 -2.7719826698303223 -2.5783612728118896
H 5.553791522979736 -0.6304315328598022 -3.664651393890381
H 6.143783092498779 -1.408280611038208 0.7727468013763428
H 3.0051181316375732 -0.362525075674057 1.2616567611694336
H 1.9379897117614746 4.60286283493042 -0.39962038397789
H 10.148396492004395 6.962317943572998 0.239522784948349
H 9.717879295349121 2.0158841609954834 0.37575313448905945
