16
Generated by QM7 dataset
C 2.947556972503662 -0.421749085187912 -0.20354239642620087
C 5.791802883148193 -0.13258318603038788 0.031010406091809273
N 6.42264986038208 2.5503745079040527 -0.2277120053768158
C 8.80344009399414 2.9889609813690186 -0.07368042320013046
N 9.927714347839355 5.305066108703613 -0.2589491605758667
C 8.466275215148926 7.610682964324951 -0.18749862909317017
H 2.402900218963623 -2.4077188968658447 -0.010166727006435394
H 2.283658504486084 0.2580798864364624 -2.043417453765869
H 1.969132423400879 0.6666953563690186 1.2604851722717285
H 6.715463161468506 -1.2458775043487549 -1.4516875743865967
H 6.400672435760498 -0.848430335521698 1.8762712478637695
H 10.206789016723633 1.4699045419692993 0.22586007416248322
H 11.714204788208008 5.4493088722229 0.41364216804504395
H 6.9708027839660645 7.59135103225708 -1.6161882877349854
H 9.6961088180542 9.226001739501953 -0.5774247050285339
H 7.61708927154541 7.877077579498291 1.6786248683929443
