19
Generated by QM7 dataset
C 4.146985054016113 8.61898422241211 -1.549291968345642
C 6.250495910644531 7.345044136047363 -0.08218418806791306
O 7.320307731628418 5.412591457366943 -1.6219708919525146
C 9.343693733215332 4.082696437835693 -0.3802317976951599
C 11.186820030212402 2.803370952606201 -2.130760669708252
C 11.950911521911621 5.164394855499268 -0.7445331811904907
C 13.824196815490723 5.053675651550293 1.3535919189453125
H 3.287802219390869 10.136528968811035 -0.4395503103733063
H 2.6806142330169678 7.249972343444824 -2.056532144546509
H 4.868879318237305 9.411724090576172 -3.319606304168701
H 5.4997076988220215 6.5113725662231445 1.656722903251648
H 7.7091755867004395 8.730875015258789 0.4065934717655182
H 8.916314125061035 3.1006247997283936 1.3700135946273804
H 10.839790344238281 2.9401304721832275 -4.144188404083252
H 11.973626136779785 1.009170413017273 -1.5371599197387695
H 12.1233491897583 6.892813682556152 -1.8323729038238525
H 13.748154640197754 3.255204439163208 2.3708503246307373
H 13.462541580200195 6.57479190826416 2.7061257362365723
H 15.73745059967041 5.293312072753906 0.6102303862571716
