15
Generated by QM7 dataset
C 1.866973876953125 0.4200861155986786 -0.09174620360136032
N 4.580450534820557 0.37237054109573364 0.07706303149461746
C 6.053208351135254 2.4568140506744385 -0.08632268756628036
N 8.436890602111816 2.450181007385254 -0.6144066452980042
C 9.155704498291016 5.1182475090026855 -0.4156074821949005
C 6.68745756149292 6.546729564666748 -0.33684366941452026
O 4.868520259857178 4.693021297454834 0.3214613199234009
H 1.1153730154037476 -1.4836995601654053 0.1998952329158783
H 1.262148141860962 1.0751218795776367 -1.957397222518921
H 1.0482121706008911 1.6512049436569214 1.3542532920837402
H 5.445113658905029 -1.1999760866165161 -0.588800847530365
H 10.244356155395508 5.408358573913574 1.321447730064392
H 10.325879096984863 5.710998058319092 -2.0139567852020264
H 6.190855979919434 7.343438148498535 -2.181121826171875
H 6.707790851593018 8.065729141235352 1.064992904663086
