16
Generated by QM7 dataset
C 1.781425952911377 0.000453534274129197 1.8063324689865112
C 0.5291610956192017 -1.9137067794799805 -0.05771223455667496
C 1.4551268815994263 -0.02876163087785244 -2.129267930984497
C 0.5653871893882751 1.9067903757095337 -0.08809903264045715
C -2.2781405448913574 1.4721910953521729 0.14962852001190186
C -2.3053524494171143 -1.421886682510376 0.17256979644298553
H 3.8510162830352783 -0.01882167160511017 1.8714714050292969
H 1.0577363967895508 0.02260112389922142 3.7427725791931152
H 1.220215082168579 -3.8517720699310303 -0.10049563646316528
H 0.4226372539997101 -0.03329697623848915 -3.9207849502563477
H 3.486109972000122 -0.05096591264009476 -2.534217119216919
H 1.2927049398422241 3.8306639194488525 -0.16255424916744232
H -3.046257495880127 2.266575336456299 1.897455096244812
H -3.3238015174865723 2.2425379753112793 -1.4589442014694214
H -3.3651297092437744 -2.197694778442383 -1.4239842891693115
H -3.088625192642212 -2.1737329959869385 1.9324527978897095
