18
Generated by QM7 dataset
C 1.6454790830612183 2.1741111278533936 -2.3659749031066895
C 4.454178810119629 1.8684099912643433 -2.347984790802002
C 5.931642532348633 2.5218772888183594 -0.3905307948589325
C 8.775567054748535 2.273132562637329 -0.19930940866470337
C 10.053323745727539 0.8868862986564636 -2.3935461044311523
C 9.957287788391113 4.892387390136719 0.12857696413993835
H 1.0834367275238037 3.414111614227295 -3.92246675491333
H 0.9326176643371582 2.9882240295410156 -0.6032572984695435
H 0.7400734424591064 0.33521851897239685 -2.639437198638916
H 5.268783092498779 1.069906234741211 -4.055295467376709
H 5.030450820922852 3.3132190704345703 1.2847681045532227
H 9.163395881652832 1.1820425987243652 1.5222121477127075
H 9.8204345703125 1.9049006700515747 -4.181529521942139
H 9.279519081115723 -1.019431710243225 -2.6237335205078125
H 12.08498764038086 0.6920366287231445 -2.0443058013916016
H 9.6339750289917 6.0806660652160645 -1.5368764400482178
H 12.00178337097168 4.7446675300598145 0.4190656542778015
H 9.16296100616455 5.871057987213135 1.7719395160675049
