19
Generated by QM7 dataset
C 3.531765937805176 0.2582310736179352 -1.352476954460144
C 3.439509391784668 -0.24942494928836823 1.4351335763931274
C 1.0076775550842285 0.012132042087614536 -0.04072359949350357
C -0.6494044065475464 2.3004581928253174 0.36912021040916443
C -3.307795524597168 1.3737363815307617 -0.2875029444694519
C -3.244981050491333 -1.424343228340149 0.3919858932495117
C -0.6343432664871216 -2.2706193923950195 -0.5078827738761902
H 4.145416736602783 2.115623950958252 -1.9647104740142822
H 4.1496686935424805 -1.262148141860962 -2.579249382019043
H 3.996638536453247 -2.1097280979156494 2.0893189907073975
H 3.984506368637085 1.2666267156600952 2.702572822570801
H -0.5738153457641602 2.8917155265808105 2.3528223037719727
H -0.10898050665855408 3.906215190887451 -0.8180435299873352
H -4.774525165557861 2.4102890491485596 0.7343286871910095
H -3.6535208225250244 1.5955336093902588 -2.318920850753784
H -4.770972728729248 -2.497934579849243 -0.49709245562553406
H -3.396367073059082 -1.6538505554199219 2.446439504623413
H -0.6864052414894104 -2.698415517807007 -2.53387713432312
H 0.0014739864272996783 -3.9567275047302246 0.5058797001838684
