16
Generated by QM7 dataset
C 1.6208369731903076 1.092998743057251 -1.5993508100509644
C 3.4396228790283203 -0.6996521949768066 -0.30297979712486267
O 5.850705623626709 0.5119079351425171 -0.13443511724472046
N 7.553783416748047 -1.1656397581100464 1.0868382453918457
C 9.395926475524902 -2.175849676132202 -0.6637474298477173
C 8.35599136352539 -0.25103121995925903 3.397822141647339
O 10.31797981262207 -0.8279646039009094 4.485586166381836
H -0.26006412506103516 0.2512768805027008 -1.754194974899292
H 2.296867609024048 1.5690773725509644 -3.4963901042938232
H 1.4748178720474243 2.8698136806488037 -0.5490221381187439
H 3.610586404800415 -2.444852113723755 -1.40450119972229
H 2.7508742809295654 -1.1557186841964722 1.595968246459961
H 8.412890434265137 -3.1308038234710693 -2.209429979324341
H 10.630729675292969 -3.5154197216033936 0.3121638596057892
H 10.540740966796875 -0.6261796355247498 -1.4151780605316162
H 6.948901176452637 1.014877438545227 4.271367073059082
