17
Generated by QM7 dataset
C 1.8923717737197876 0.019785432144999504 -0.0877399817109108
C 4.7583112716674805 -0.03991101682186127 0.09469417482614517
C 5.821320056915283 2.109501361846924 1.7102210521697998
C 8.512025833129883 1.2859586477279663 2.3146121501922607
C 8.235729217529297 -1.5430747270584106 2.4427921772003174
O 9.846871376037598 -2.9586687088012695 3.3105924129486084
C 5.7517595291137695 -2.436594009399414 1.3710529804229736
H 1.2030752897262573 -1.5591940879821777 -1.2321014404296875
H 1.2541733980178833 1.7789314985275269 -0.9688248038291931
H 1.0117594003677368 -0.11370482295751572 1.7797629833221436
H 5.560670375823975 0.09554455429315567 -1.8152520656585693
H 4.734312057495117 2.313194751739502 3.464831829071045
H 5.7771382331848145 3.9272098541259766 0.7235761284828186
H 9.813801765441895 1.7662324905395508 0.7838962078094482
H 9.168082237243652 2.0609352588653564 4.111269474029541
H 6.041548728942871 -3.960979461669922 0.007823466323316097
H 4.540085792541504 -3.0634350776672363 2.9248046875
