20
Generated by QM7 dataset
C 1.8202030658721924 -1.5513328313827515 0.5149503946304321
C 4.5554118156433105 -0.7440040707588196 -0.0005858151125721633
C 6.004642486572266 -2.9481239318847656 -1.1806631088256836
C 4.631775379180908 1.6498632431030273 -1.6578378677368164
O 3.3050553798675537 3.6463778018951416 -0.39002057909965515
C 7.329850673675537 2.6013782024383545 -2.2252280712127686
N 7.209909915924072 5.089504718780518 -3.4642648696899414
H 0.7707058787345886 -0.06723645329475403 1.5033527612686157
H 1.76593017578125 -3.2437903881073 1.7061392068862915
H 0.8219930529594421 -1.9791858196258545 -1.2477294206619263
H 5.410871505737305 -0.3054364323616028 1.8375319242477417
H 5.2972612380981445 -3.3802475929260254 -3.0776078701019287
H 5.8160481452941895 -4.655907154083252 -0.025322331115603447
H 8.025496482849121 -2.5320818424224854 -1.3223170042037964
H 3.6375339031219482 1.3048937320709229 -3.44478178024292
H 4.0251922607421875 5.200412750244141 -1.09910249710083
H 8.355631828308105 1.277133584022522 -3.4364101886749268
H 8.381464958190918 2.8276350498199463 -0.45676571130752563
H 6.409800052642822 4.889250755310059 -5.208935737609863
H 9.008513450622559 5.709788799285889 -3.782721519470215
