13
Generated by QM7 dataset
C 1.8612101078033447 0.005272335838526487 -0.14993086457252502
C 4.717531204223633 -0.06037674844264984 0.09932400286197662
C 5.868260860443115 -2.3368542194366455 -1.054958462715149
C 7.430119514465332 -1.5965728759765625 -2.8655617237091064
O 7.611344337463379 0.9717538952827454 -3.258530378341675
C 5.966300010681152 1.9737811088562012 -1.5037873983383179
O 5.573293685913086 4.244608402252197 -1.2847870588302612
H 1.103240966796875 1.7540438175201416 0.657511293888092
H 0.9920306205749512 -1.588824987411499 0.8430824279785156
H 1.2595781087875366 -0.06557349860668182 -2.1308741569519043
H 5.32870626449585 0.14048224687576294 2.064884901046753
H 5.513880729675293 -4.266056537628174 -0.49559956789016724
H 8.595816612243652 -2.7316935062408447 -4.090066432952881
