16
Generated by QM7 dataset
C 1.687619924545288 -0.03700083866715431 0.24487070739269257
C 4.549534797668457 -0.009184069000184536 -0.07471977174282074
C 5.946684837341309 1.9464179277420044 1.6074577569961548
N 7.805268287658691 -0.01863269880414009 2.319563150405884
C 5.978696823120117 -1.9914122819900513 1.5483849048614502
C 5.259636878967285 0.036471713334321976 -2.7406697273254395
C 5.8395185470581055 0.07381270080804825 -4.936474800109863
H 1.146402359008789 -0.07205525785684586 2.243577241897583
H 0.8517562747001648 -1.7067627906799316 -0.6510484218597412
H 0.824959933757782 1.645951509475708 -0.5994778275489807
H 4.856010437011719 2.646145820617676 3.2257626056671143
H 6.7637834548950195 3.5842247009277344 0.6411274075508118
H 9.376121520996094 0.010998206213116646 1.197292685508728
H 6.822119235992432 -3.585982084274292 0.5335641503334045
H 4.899946689605713 -2.7570159435272217 3.144712209701538
H 6.350197792053223 0.10680732131004333 -6.883535385131836
