19
Generated by QM7 dataset
C 3.250291109085083 -1.018467903137207 -2.0920779705047607
N 4.342080593109131 0.0005669178208336234 0.2243104875087738
C 5.9258222579956055 2.2479803562164307 -0.2597995400428772
C 8.27800178527832 1.7513604164123535 -1.8245872259140015
C 4.270610809326172 4.593735218048096 -0.8628489375114441
N 5.712264060974121 6.0447235107421875 1.0635567903518677
C 6.369964599609375 3.613590955734253 2.307166576385498
H 1.912213921546936 -2.5181922912597656 -1.6053223609924316
H 4.693418502807617 -1.849947452545166 -3.318359136581421
H 2.2036097049713135 0.4133586883544922 -3.154916763305664
H 5.254685878753662 -1.405616044998169 1.168360948562622
H 9.493133544921875 3.4264135360717773 -1.919054627418518
H 7.802717208862305 1.2450838088989258 -3.773688554763794
H 9.405771255493164 0.21533429622650146 -1.014461636543274
H 2.256011724472046 4.440138339996338 -0.3957464396953583
H 4.43246603012085 5.3407063484191895 -2.7854185104370117
H 7.243717193603516 6.955893039703369 0.33005955815315247
H 8.296143531799316 3.536320209503174 3.059221029281616
H 5.062954425811768 3.129518747329712 3.8434762954711914
