10
Generated by QM7 dataset
O 2.2217321395874023 -0.3880552649497986 0.5502126812934875
C 4.4649882316589355 -0.08475421369075775 0.29625236988067627
C 6.319206237792969 2.114905834197998 -0.12105585634708405
C 8.11567497253418 0.02326252870261669 -1.0492326021194458
N 6.37410306930542 -1.799435019493103 0.10573017597198486
H 6.884064674377441 3.0753591060638428 1.6199299097061157
H 5.730518817901611 3.478040933609009 -1.5518808364868164
H 8.249335289001465 -0.1998196393251419 -3.100114583969116
H 9.992399215698242 0.011754096485674381 -0.1906544715166092
H 5.901898384094238 -3.55230712890625 -0.4898359179496765
