16
Generated by QM7 dataset
C 1.8660290241241455 -0.02983877621591091 0.0094864247366786
C 4.762109756469727 0.0 0.0
N 5.65579891204834 -1.274865984916687 2.2964518070220947
C 5.761359214782715 -1.4356060028076172 -2.3630080223083496
O 8.463044166564941 -1.6888104677200317 -2.334340810775757
C 5.672995567321777 2.5722384452819824 0.0
C 6.423746109008789 4.692322254180908 0.0
H 1.103411078453064 0.9000009894371033 -1.6781524419784546
H 1.0957955121994019 0.966330349445343 1.6565717458724976
H 1.1292436122894287 -1.9655797481536865 0.04333142191171646
H 5.466372966766357 -0.09802009165287018 3.805870532989502
H 7.5426530838012695 -1.6254101991653442 2.0858607292175293
H 5.237054824829102 -0.4638521671295166 -4.116220474243164
H 4.976083755493164 -3.3502955436706543 -2.4432647228240967
H 9.15642261505127 0.014531994238495827 -2.3161427974700928
H 7.086832046508789 6.594728469848633 0.010431287810206413
