17
Generated by QM7 dataset
C 2.8285610675811768 2.5121641159057617 -1.3856605291366577
O 5.420282363891602 1.835925579071045 -1.1846692562103271
C 6.771134376525879 3.556124448776245 0.4041368365287781
C 9.509366035461426 2.694258213043213 0.5636864304542542
C 11.099249839782715 2.8924336433410645 -1.8522717952728271
C 12.890559196472168 4.469353675842285 -0.23903146386146545
O 11.080163955688477 4.58086633682251 1.8102253675460815
H 1.9013290405273438 1.1659232378005981 -2.648923635482788
H 2.632634162902832 4.409600257873535 -2.1847124099731445
H 1.9126296043395996 2.4197943210601807 0.46583637595176697
H 5.922155857086182 3.561075448989868 2.293182611465454
H 6.646337032318115 5.466089725494385 -0.3886410892009735
H 9.70058822631836 0.8682724833488464 1.5292608737945557
H 10.224268913269043 3.9278903007507324 -3.4124295711517334
H 11.87696647644043 1.1078897714614868 -2.541341543197632
H 14.629182815551758 3.5184054374694824 0.3493347764015198
H 13.326367378234863 6.346456050872803 -0.9821851849555969
