18
Generated by QM7 dataset
C 3.9435184001922607 2.757923126220703 4.258081912994385
C 5.410588264465332 2.6786301136016846 1.7987358570098877
O 7.292075157165527 4.606377601623535 1.8582243919372559
C 8.765399932861328 4.6118011474609375 -0.40366441011428833
C 10.538152694702148 6.8109130859375 -0.31085994839668274
C 13.22530460357666 6.477773189544678 0.5661241412162781
N 12.649921417236328 6.939867973327637 -2.0958008766174316
H 2.4495575428009033 1.328798770904541 4.271234512329102
H 3.0891919136047363 4.621514320373535 4.540501594543457
H 5.201112270355225 2.421135902404785 5.867051601409912
H 4.126954078674316 3.005363702774048 0.2090792953968048
H 6.31058931350708 0.8278890252113342 1.576693058013916
H 7.512889862060547 4.81572151184082 -2.0453262329101562
H 9.786703109741211 2.814992666244507 -0.561286449432373
H 9.57715129852295 8.572345733642578 0.09144384413957596
H 13.88960075378418 4.599385738372803 1.0252141952514648
H 14.114401817321777 8.006221771240234 1.5938706398010254
H 13.028338432312012 8.771768569946289 -2.567892074584961
