15
Generated by QM7 dataset
C 1.889726161956787 0.0 0.0
C 4.138802528381348 0.0 0.0
C 6.86756706237793 0.0 0.0
C 7.92139196395874 -2.3046910762786865 -1.4388375282287598
C 8.530129432678223 -1.261996865272522 -3.996940851211548
C 8.53173542022705 1.26468026638031 -3.9968464374542236
C 7.921675205230713 2.30416202545166 -1.4346611499786377
H -0.12411721050739288 0.0 -0.007823466323316097
H 7.544977188110352 -0.0013039109762758017 1.9579452276229858
H 6.570445537567139 -3.8666632175445557 -1.559874415397644
H 9.659750938415527 -3.0003747940063477 -0.5567889213562012
H 8.951972961425781 -2.427844524383545 -5.6219353675842285
H 8.954524040222168 2.4329845905303955 -5.619081974029541
H 9.662548065185547 2.9994490146636963 -0.5528960824012756
H 6.572543144226074 3.869119882583618 -1.555679202079773
