17
Generated by QM7 dataset
C 2.1601836681365967 1.3705617189407349 2.5844461917877197
N 3.108656167984009 3.799483299255371 1.7843738794326782
C 5.526787757873535 4.109115123748779 0.8567451238632202
C 6.006834506988525 6.623924732208252 -0.5394412279129028
O 4.146588325500488 8.451138496398926 0.11958187073469162
N 7.221493721008301 2.371417284011841 1.1474605798721313
C 9.732410430908203 2.7708675861358643 0.10571128129959106
H 0.18944504857063293 1.5529769659042358 3.181769609451294
H 3.2470974922180176 0.6484594941139221 4.1894659996032715
H 2.2407994270324707 -0.000925965781789273 1.0382155179977417
H 1.8063892126083374 4.9940924644470215 1.023154377937317
H 5.890200614929199 6.279616832733154 -2.5738258361816406
H 7.866589546203613 7.389736175537109 -0.07685516029596329
H 4.298125267028809 8.670025825500488 1.94305419921875
H 10.801636695861816 1.0055043697357178 0.24016529321670532
H 10.765807151794434 4.203015327453613 1.1821937561035156
H 9.674131393432617 3.2963814735412598 -1.894223690032959
