13
Generated by QM7 dataset
C 1.2663244009017944 2.3437139987945557 -0.36758953332901
N -1.4741753339767456 2.58803653717041 0.06602703034877777
C -2.637849807739258 0.10359478741884232 -0.4122437536716461
C -0.6133673191070557 -1.72239089012146 0.29644134640693665
O 1.294764757156372 -2.203874111175537 -1.564976692199707
C 1.809639573097229 -0.3323083519935608 0.3248628079891205
H 1.7348064184188843 2.7058610916137695 -2.3513107299804688
H 2.2997777462005615 3.676008701324463 0.8270008563995361
H -2.216724395751953 3.9055914878845215 -1.1214390993118286
H -4.329419136047363 -0.12918168306350708 0.7509960532188416
H -3.1517419815063477 -0.09919172525405884 -2.407151937484741
H -1.051783800125122 -3.1006059646606445 1.7280222177505493
H 3.195772647857666 -0.6625002026557922 1.7766637802124023
