14
Generated by QM7 dataset
C 2.2089197635650635 -0.10680732131004333 0.320516437292099
C 5.024309158325195 0.10350029915571213 -0.16338571906089783
O 6.04653787612915 2.152738332748413 1.282651662826538
C 8.408109664916992 1.2053996324539185 2.168914318084717
C 7.873751640319824 -1.556113839149475 2.5763392448425293
O 6.2634782791137695 -2.2097890377044678 0.5123236775398254
H 1.3917454481124878 -1.6774343252182007 -0.7478969097137451
H 1.2398303747177124 1.6477844715118408 -0.18838679790496826
H 1.8381365537643433 -0.46096089482307434 2.3262150287628174
H 5.383262634277344 0.4639088809490204 -2.169764757156372
H 9.821568489074707 1.500820517539978 0.6856682300567627
H 8.998459815979004 2.1896634101867676 3.8859384059906006
H 9.574600219726562 -2.729954957962036 2.575772285461426
H 6.823876857757568 -1.875855565071106 4.330741882324219
