14
Generated by QM7 dataset
C 1.8366626501083374 -0.009675397537648678 -0.1222652792930603
C 4.661973476409912 -0.06631048768758774 -0.1365705132484436
C 6.004018783569336 -2.218614101409912 -0.19966846704483032
C 6.032704830169678 2.404052972793579 0.00018897261179517955
N 5.136199951171875 4.394198894500732 1.3534029722213745
N 8.118490219116211 2.8262367248535156 -1.2164545059204102
H 1.1317758560180664 1.2338210344314575 -1.6183803081512451
H 1.1266547441482544 0.6753125190734863 1.6958212852478027
H 1.0283700227737427 -1.8877229690551758 -0.4436888098716736
H 5.076371192932129 -4.047264099121094 -0.2692103981971741
H 8.054183006286621 -2.2323901653289795 -0.11515991389751434
H 3.243809461593628 4.584173202514648 1.5109493732452393
H 6.042890548706055 6.017757415771484 0.8862626552581787
H 8.626051902770996 1.265738606452942 -2.2406861782073975
