19
Generated by QM7 dataset
C 1.7610924243927002 0.13948068022727966 -0.3602762818336487
C 4.541484355926514 -0.10004210472106934 0.02571917325258255
C 6.198528289794922 -1.647500991821289 -1.7103533744812012
C 5.174750328063965 -3.0389819145202637 -3.9362428188323975
C 6.35896635055542 1.2059098482131958 -1.7528154850006104
C 8.597517013549805 2.4349687099456787 -0.6789975166320801
C 10.942440032958984 2.3050689697265625 -1.6175867319107056
H 1.0283889770507812 1.7147185802459717 0.76288241147995
H 0.8049099445343018 -1.5869730710983276 0.2587602138519287
H 1.256705641746521 0.48970362544059753 -2.334832191467285
H 4.996700286865234 -0.17011314630508423 2.0248794555664062
H 7.719625949859619 -2.703423261642456 -0.8270386457443237
H 3.8291332721710205 -1.9136122465133667 -5.0303754806518555
H 4.225408554077148 -4.768988609313965 -3.3186614513397217
H 6.720810890197754 -3.5733964443206787 -5.202056884765625
H 5.563013553619385 2.18758487701416 -3.3697407245635986
H 8.29500961303711 3.570429563522339 1.0105688571929932
H 11.352775573730469 1.2126373052597046 -3.3042049407958984
H 12.494302749633789 3.2878966331481934 -0.708855152130127
