10
Generated by QM7 dataset
O 5.061593532562256 -2.035064935684204 0.10423729568719864
C 4.116352558135986 0.08719196170568466 0.01568472757935524
C 5.455639362335205 2.4571163654327393 -0.0057636648416519165
N 4.400170803070068 4.718835353851318 -0.10166726261377335
C 6.425371170043945 6.34088134765625 -0.08050233125686646
C 8.637201309204102 4.992977619171143 0.02783566527068615
O 8.043543815612793 2.489487409591675 0.07704413682222366
H 2.0432474613189697 0.2892036736011505 -0.05686185881495476
H 6.184525489807129 8.36914348602295 -0.14371366798877716
H 10.622849464416504 5.462442398071289 0.0792173221707344
