18
Generated by QM7 dataset
N 2.056286573410034 0.004270780831575394 1.2720690965652466
C 4.567676067352295 0.034298527985811234 0.10087358206510544
C 4.810675621032715 2.3088295459747314 -1.6798909902572632
C 7.425848960876465 2.402219772338867 -2.915677309036255
C 8.34431266784668 -0.1281801164150238 -3.80246901512146
C 7.271930694580078 -2.3156514167785645 -3.10457444190979
C 5.0678486824035645 -2.461897373199463 -1.3206918239593506
H 1.7932177782058716 1.6205157041549683 2.2823734283447266
H 1.944566011428833 -1.453709602355957 2.5238425731658936
H 5.975805282592773 0.2311135083436966 1.6150544881820679
H 4.483923435211182 4.077783107757568 -0.6512941122055054
H 3.359271764755249 2.2006428241729736 -3.157978057861328
H 8.808013916015625 3.1618897914886475 -1.5737639665603638
H 7.360577583312988 3.707529306411743 -4.520394802093506
H 9.95076847076416 -0.15163162350654602 -5.0850830078125
H 7.9896111488342285 -4.089669704437256 -3.8503925800323486
H 3.3989181518554688 -3.0214452743530273 -2.412405490875244
H 5.415066719055176 -3.96336030960083 0.06273891031742096
