15
Generated by QM7 dataset
C 4.601350784301758 -0.9482457041740417 -2.662491798400879
C 4.716567516326904 0.11429063975811005 0.004044014029204845
C 5.475273609161377 2.8121960163116455 0.0054802056401968
C 4.1398606300354 5.050803184509277 0.025246741250157356
C 5.9610276222229 7.010222434997559 0.012245425023138523
C 8.281251907348633 5.843997001647949 -0.014097357168793678
O 8.00582504272461 3.2936224937438965 -0.017498863860964775
H 4.037267684936523 -2.9374659061431885 -2.617440700531006
H 6.4428510665893555 -0.8230135440826416 -3.597774028778076
H 3.230600118637085 0.08277000486850739 -3.8197033405303955
H 6.057252407073975 -0.9908589720726013 1.133155345916748
H 2.8622169494628906 -0.08728644996881485 0.9060670137405396
H 2.106931209564209 5.239889144897461 0.045523501932621
H 5.625450134277344 9.024859428405762 0.020692501217126846
H 10.210077285766602 6.521822929382324 -0.03102930262684822
