16
Generated by QM7 dataset
C 2.194425582885742 -0.5224148035049438 -0.16982968151569366
C 5.059382438659668 -0.3054742217063904 -0.10440737009048462
C 5.909834861755371 2.45133376121521 0.03395837917923927
C 8.788435935974121 2.6509077548980713 0.10170505940914154
N 9.562638282775879 5.29232931137085 0.24507857859134674
H 1.627772331237793 -2.5093295574188232 -0.27208277583122253
H 1.4149324893951416 0.4530807435512543 -1.8192771673202515
H 1.3503793478012085 0.2995215952396393 1.5304324626922607
H 5.8463592529296875 -1.2023193836212158 -1.799623966217041
H 5.781598091125488 -1.3510030508041382 1.5327190160751343
H 5.106512546539307 3.337332010269165 1.7268317937850952
H 5.171840190887451 3.4831809997558594 -1.6038295030593872
H 9.608595848083496 1.787869930267334 -1.5937761068344116
H 9.536408424377441 1.6399610042572021 1.7472407817840576
H 8.925176620483398 6.23944091796875 -1.3060085773468018
H 11.485055923461914 5.399042129516602 0.19074895977973938
