11
Generated by QM7 dataset
C 1.7912524938583374 0.017612246796488762 -0.01424853503704071
C 4.599498748779297 0.08411171287298203 -0.0023621576838195324
C 6.086940288543701 2.2327492237091064 0.003571582492440939
S 9.2046480178833 1.3743599653244019 0.016478411853313446
N 8.684066772460938 -1.7154555320739746 0.014437507838010788
C 6.200493812561035 -2.096802234649658 0.004327472764998674
H 0.9912180304527283 1.9251017570495605 0.005121157970279455
H 1.0872161388397217 -0.9898574352264404 1.6495230197906494
H 1.1011812686920166 -0.9505511522293091 -1.7070084810256958
H 5.523026943206787 4.1955132484436035 0.0008881712565198541
H 5.5655646324157715 -4.0441083908081055 0.0014739864272996783
