14
Generated by QM7 dataset
C 5.557986736297607 -2.23518705368042 0.9052922129631042
N 4.511589050292969 0.15127258002758026 0.07188518345355988
C 5.867221832275391 2.323456048965454 0.01526898704469204
C 4.745914936065674 4.645343780517578 -0.34275853633880615
S 6.894571304321289 7.064079761505127 -0.3340469002723694
C 9.347284317016602 5.007188320159912 0.13027772307395935
C 8.535079956054688 2.5366928577423096 0.2793582081794739
H 4.126047134399414 -3.7163732051849365 0.7321932911872864
H 6.137320041656494 -2.1355795860290527 2.888408660888672
H 7.176480770111084 -2.7929773330688477 -0.2556988298892975
H 2.590701103210449 0.23132137954235077 0.12774547934532166
H 2.7649338245391846 5.058002948760986 -0.6106082797050476
H 11.261822700500488 5.707388877868652 0.2683033049106598
H 9.821700096130371 0.9747396111488342 0.5614376068115234
