15
Generated by QM7 dataset
C 1.7720340490341187 0.44922569394111633 -0.33523741364479065
C 4.504899024963379 0.44572970271110535 0.31745508313179016
O 5.887044906616211 -1.6460837125778198 -0.6942664980888367
C 6.503171443939209 0.8173443675041199 -1.6810247898101807
C 9.046780586242676 1.7002811431884766 -0.9787269830703735
N 10.156352043151855 3.290372133255005 -2.470608949661255
N 12.486837387084961 3.9687461853027344 -1.6666817665100098
H 0.9782356023788452 2.3391408920288086 -0.06277669966220856
H 0.7458370923995972 -0.8634536862373352 0.890533447265625
H 1.4394421577453613 -0.11226862668991089 -2.2990596294403076
H 4.8775153160095215 1.009964108467102 2.2455804347991943
H 5.89891242980957 1.2348037958145142 -3.5915379524230957
H 9.899235725402832 0.9779521822929382 0.785521388053894
H 13.716785430908203 2.477090835571289 -1.7328221797943115
H 13.222886085510254 5.284600257873535 -2.8781661987304688
