14
Generated by QM7 dataset
C 2.6626620292663574 -0.576517641544342 -2.0464978218078613
C 4.313261985778809 -0.0252845361828804 -0.2031833529472351
C 5.773189067840576 2.4253690242767334 0.0
C 5.028750419616699 3.818002700805664 2.384664297103882
C 3.9404759407043457 6.106574535369873 2.4431891441345215
C 8.456259727478027 1.928087592124939 0.0
N 10.594938278198242 1.5317175388336182 0.0
H 1.6850121021270752 -2.382472276687622 -2.071706771850586
H 2.244692325592041 0.7393742203712463 -3.5653085708618164
H 4.646042823791504 -1.4330549240112305 1.2621859312057495
H 5.327704906463623 3.614044427871704 -1.6422287225723267
H 5.420414924621582 2.8769569396972656 4.174159526824951
H 3.5029475688934326 7.1497979164123535 0.7307760119438171
H 3.463301181793213 6.993725299835205 4.232608795166016
