14
Generated by QM7 dataset
N 3.858159303665161 -2.198488473892212 1.555131196975708
C 4.6019368171691895 -0.610192596912384 -0.32240617275238037
N 4.164597511291504 -1.0885767936706543 -2.6683499813079834
C 6.046367645263672 1.7699742317199707 0.335426390171051
C 8.84448528289795 1.4433728456497192 -0.26184046268463135
C 10.005741119384766 -0.40506279468536377 1.4552024602890015
N 10.840300559997559 -1.8687502145767212 2.8575870990753174
H 4.782310962677002 -2.080739736557007 3.2353622913360596
H 3.4748852252960205 -4.008883953094482 1.0642937421798706
H 3.1467342376708984 -2.7250795364379883 -2.8234965801239014
H 5.751646041870117 2.2342610359191895 2.3327345848083496
H 5.2711076736450195 3.3250110149383545 -0.7924944758415222
H 9.80061149597168 3.268035650253296 -0.04935964569449425
H 9.112751007080078 0.8397564888000488 -2.2247745990753174
