16
Generated by QM7 dataset
N 2.019172430038452 -0.2471761852502823 0.013568233698606491
C 4.770292282104492 -0.09875708818435669 -0.07453079521656036
C 6.11613655090332 -1.1327018737792969 -2.348324775695801
C 5.989165782928467 1.6850688457489014 -1.9296560287475586
C 8.278436660766602 3.1531214714050293 -1.1535454988479614
C 9.588470458984375 3.7292611598968506 -3.530386447906494
C 10.670319557189941 4.2075886726379395 -5.464048862457275
H 1.2963709831237793 1.0506120920181274 1.2400004863739014
H 1.4454137086868286 -1.9713245630264282 0.6541665196418762
H 5.705026626586914 -0.36883676052093506 1.736979603767395
H 5.000442028045654 -1.9085477590560913 -3.881629705429077
H 7.90455436706543 -2.0866544246673584 -2.0571181774139404
H 4.737354278564453 2.774533748626709 -3.1372287273406982
H 9.502809524536133 2.069098949432373 0.1146685853600502
H 7.713484287261963 4.8888726234436035 -0.18103575706481934
H 11.625349044799805 4.628921985626221 -7.188178062438965
