17
Generated by QM7 dataset
C 1.7883989810943604 0.1138748973608017 -0.009373041801154613
C 4.590446949005127 0.0708836242556572 -0.0005291232955642045
C 6.193841934204102 2.0408287048339844 -0.005499103106558323
C 8.758106231689453 1.1184722185134888 0.007407726254314184
C 8.742931365966797 -1.4176158905029297 0.020711397752165794
C 10.932424545288086 -3.166670799255371 0.037492167204618454
C 6.060408592224121 -2.3644442558288574 0.017139816656708717
H 1.0599095821380615 2.050126075744629 -0.005366822239011526
H 1.047588586807251 -0.8497342467308044 1.663696050643921
H 1.0585300922393799 -0.8394541144371033 -1.693081259727478
H 5.692119598388672 4.018162250518799 -0.017347685992717743
H 10.402318954467773 2.325345754623413 0.006803013850003481
H 12.72624683380127 -2.136127471923828 0.030405692756175995
H 10.891965866088867 -4.388057231903076 -1.6307580471038818
H 10.888696670532227 -4.359976291656494 1.7258679866790771
H 5.665682315826416 -3.4888691902160645 -1.6732391119003296
H 5.6548542976379395 -3.470538854598999 1.717099666595459
