16
Generated by QM7 dataset
C 1.6886403560638428 0.08872263878583908 -0.6620655655860901
C 3.6376471519470215 0.5219801664352417 0.8906468152999878
C 5.513030529022217 2.508497953414917 0.27038201689720154
C 4.592166900634766 5.279875755310059 0.5465654730796814
C 7.25380802154541 5.91544771194458 1.55135178565979
C 7.445634365081787 3.1290464401245117 2.3878767490386963
H 0.31178590655326843 -1.3679161071777344 -0.22984738647937775
H 1.4146678447723389 1.167208194732666 -2.3867239952087402
H 3.8726346492767334 -0.5906528234481812 2.599261522293091
H 6.444835186004639 2.14810848236084 -1.5508981943130493
H 3.092045545578003 5.573331356048584 1.9455486536026
H 4.062155246734619 6.227913856506348 -1.211276650428772
H 8.604111671447754 6.438032150268555 0.06957971304655075
H 7.3337249755859375 7.318512439727783 3.064531087875366
H 9.312910079956055 2.26967453956604 2.179213285446167
H 6.772627353668213 2.806281089782715 4.320802211761475
