11
Generated by QM7 dataset
O 1.6119742393493652 0.3112379014492035 -0.1729855239391327
C 3.911562919616699 0.11058676987886429 -0.09922952204942703
C 5.516526222229004 2.310549259185791 -0.05559574440121651
C 6.857797145843506 4.138859272003174 -0.018349241465330124
C 8.454729080200195 6.319093227386475 0.03195526823401451
C 8.7792329788208 7.87974214553833 -2.3239474296569824
O 7.104671001434326 8.63986587524414 -0.33782634139060974
H 4.8960347175598145 -1.7226365804672241 -0.0648931935429573
H 9.971688270568848 6.336554050445557 1.4072412252426147
H 7.936585426330566 7.236044883728027 -4.074154853820801
H 10.513378143310547 8.940634727478027 -2.552037239074707
