18
Generated by QM7 dataset
C 1.7996617555618286 0.04614711180329323 -1.3099581003189087
C 4.571058750152588 0.022374358028173447 -0.777565598487854
C 6.077491760253906 2.0507497787475586 -1.0009500980377197
C 8.796996116638184 2.1026415824890137 -0.49622318148612976
C 10.581880569458008 1.004427194595337 -2.441563844680786
N 10.328014373779297 3.7254438400268555 -2.1218411922454834
C 12.462308883666992 4.879802227020264 -0.8121854066848755
H 1.362133502960205 -1.2879995107650757 -2.8288633823394775
H 1.1260499954223633 1.9177507162094116 -1.881581425666809
H 0.752659022808075 -0.5260997414588928 0.37991052865982056
H 5.374626636505127 -1.772374153137207 -0.18496640026569366
H 5.247788429260254 3.8389220237731934 -1.5975555181503296
H 9.31606674194336 1.9593058824539185 1.4818854331970215
H 9.804220199584961 0.23742519319057465 -4.174405097961426
H 12.290702819824219 0.08660615235567093 -1.7870006561279297
H 11.852532386779785 6.639609336853027 0.08981868624687195
H 13.938525199890137 5.357449054718018 -2.1815755367279053
H 13.318978309631348 3.683926582336426 0.6483272314071655
