17
Generated by QM7 dataset
C 5.636051654815674 -2.3159539699554443 -1.132172703742981
C 4.6167144775390625 0.013965075835585594 0.2158067226409912
C 6.45073127746582 2.2551236152648926 0.12595024704933167
C 5.448137283325195 4.492616176605225 1.5837794542312622
C 5.229098796844482 6.501735210418701 0.050134435296058655
C 6.039035797119141 5.814347267150879 -2.455925941467285
C 6.756545543670654 3.385047435760498 -2.4754278659820557
H 4.317419528961182 -3.894744396209717 -0.9148353338241577
H 7.458031177520752 -2.8913376331329346 -0.3401128947734833
H 5.881715774536133 -1.9745559692382812 -3.156126022338867
H 4.242756366729736 -0.4872658848762512 2.193537473678589
H 2.7879319190979004 0.5265910625457764 -0.6195089221000671
H 8.301321029663086 1.708236813545227 0.8808391690254211
H 4.993261337280273 4.468143939971924 3.5729053020477295
H 4.569112300872803 8.358542442321777 0.575534999370575
H 6.065019130706787 7.094901084899902 -4.043806076049805
H 7.47382926940918 2.383265972137451 -4.10178279876709
