12
Generated by QM7 dataset
C 1.740570068359375 -0.1483246088027954 0.3102363348007202
C 4.2408857345581055 -0.0615861751139164 -0.06064131110906601
C 5.761869430541992 2.311248540878296 -0.23389139771461487
O 7.986001491546631 1.9750850200653076 1.2526049613952637
N 9.458759307861328 -0.09558235108852386 0.42704030871391296
C 8.162445068359375 -2.074673652648926 -0.18912379443645477
O 5.600713729858398 -2.332073211669922 -0.2901485562324524
H 0.620680570602417 1.5574555397033691 0.5085631012916565
H 0.7605202794075012 -1.9464935064315796 0.4299694001674652
H 4.735956192016602 3.9430646896362305 0.5159708261489868
H 6.296189308166504 2.719296932220459 -2.1927058696746826
H 9.075617790222168 -3.8616743087768555 -0.7327224016189575
