20
Generated by QM7 dataset
C 1.8339602947235107 -0.02428298071026802 0.13469967246055603
C 4.745121002197266 0.026172706857323647 0.13018323481082916
C 5.687225341796875 -1.0422784090042114 2.670145273208618
C 5.809585094451904 -1.6589716672897339 -2.0207598209381104
N 5.09103536605835 -0.8224465847015381 -4.563102722167969
C 5.6988091468811035 2.7767446041107178 -0.1197141483426094
O 4.846561908721924 3.949981212615967 -2.3838517665863037
H 1.0323762893676758 0.7939873337745667 -1.5881636142730713
H 1.0783532857894897 1.0533900260925293 1.7343339920043945
H 1.1258798837661743 -1.964030146598816 0.2976696491241455
H 4.993525505065918 0.08566128462553024 4.262560844421387
H 7.756475448608398 -1.04775869846344 2.7585089206695557
H 5.039237976074219 -2.9896035194396973 2.9495601654052734
H 5.180022716522217 -3.61784291267395 -1.7697285413742065
H 7.879458904266357 -1.6773587465286255 -1.9221538305282593
H 3.189309597015381 -1.0744037628173828 -4.796635150909424
H 5.910855293273926 -2.0000104904174805 -5.856696128845215
H 7.768815517425537 2.844944953918457 -0.11015213280916214
H 5.0323405265808105 3.93338942527771 1.4631394147872925
H 5.104263782501221 2.6925196647644043 -3.727938413619995
