19
Generated by QM7 dataset
C 5.521496295928955 -2.279463291168213 -0.9514960050582886
C 4.47570276260376 0.06861595809459686 0.33283746242523193
C 6.388521671295166 2.165928602218628 0.43467479944229126
O 8.595891952514648 1.6058136224746704 1.904862880706787
C 6.834270000457764 3.8057761192321777 -1.847717523574829
C 5.515316963195801 4.8827691078186035 0.4349960684776306
C 6.790088176727295 6.8485188484191895 1.999670386314392
H 4.084737300872803 -3.766110897064209 -1.0116082429885864
H 7.167428970336914 -3.0176470279693604 0.06258773058652878
H 6.10693359375 -1.866633653640747 -2.893000602722168
H 3.8889997005462646 -0.40602657198905945 2.2615296840667725
H 2.774155855178833 0.6828336119651794 -0.6772778630256653
H 8.189657211303711 1.5145399570465088 3.6955673694610596
H 5.716005802154541 3.466097831726074 -3.5294792652130127
H 8.761866569519043 4.378060817718506 -2.240156888961792
H 3.5041191577911377 5.245690822601318 0.28223058581352234
H 8.847527503967285 6.633486747741699 2.019909381866455
H 6.110599517822266 6.7528228759765625 3.950491428375244
H 6.356717586517334 8.730799674987793 1.2601449489593506
