19
Generated by QM7 dataset
C 3.7474024295806885 -0.9135125279426575 -2.5307211875915527
O 4.2099127769470215 0.15250089764595032 -0.11293003708124161
C 5.77001428604126 2.3874800205230713 -0.08409281075000763
C 4.50004243850708 4.887568950653076 -0.9259091019630432
C 5.9905829429626465 6.224001884460449 1.1871259212493896
C 6.112035751342773 3.642428159713745 2.555873394012451
C 8.543546676635742 3.0499801635742188 3.947373390197754
H 2.569385051727295 -2.594329357147217 -2.294996738433838
H 5.530831336975098 -1.464840054512024 -3.41872239112854
H 2.74845552444458 0.44049516320228577 -3.7311320304870605
H 7.577707290649414 2.044154644012451 -1.047607421875
H 2.4462883472442627 4.9229254722595215 -0.6605915427207947
H 4.940254211425781 5.511178493499756 -2.845625162124634
H 7.826262950897217 6.9556474685668945 0.5652170777320862
H 4.9758758544921875 7.720910549163818 2.185203790664673
H 4.471148490905762 3.332437515258789 3.792283535003662
H 10.203727722167969 3.3499741554260254 2.749173641204834
H 8.558456420898438 1.079392671585083 4.5774078369140625
H 8.73631763458252 4.253320217132568 5.619157314300537
