17
Generated by QM7 dataset
C 4.732497692108154 -0.578218400478363 -3.2202067375183105
C 5.258087158203125 0.13129816949367523 -0.48271164298057556
N 6.303162574768066 2.6960723400115967 -0.22729626297950745
C 4.41311502456665 4.710822582244873 -0.13177059590816498
C 8.881316184997559 3.148453712463379 -0.16831791400909424
N 9.59024715423584 5.542283058166504 0.44580528140068054
S 11.206170082092285 1.10628342628479 -0.7886205315589905
H 3.981426239013672 -2.5022997856140137 -3.3262202739715576
H 6.448369026184082 -0.4922736585140228 -4.3703508377075195
H 3.3446829319000244 0.6960050463676453 -4.073247909545898
H 6.550093173980713 -1.2486364841461182 0.35541969537734985
H 3.5081253051757812 0.03569692745804787 0.622381329536438
H 3.544313669204712 4.696744441986084 1.7437636852264404
H 2.960010290145874 4.363528728485107 -1.5597422122955322
H 5.2188944816589355 6.574357032775879 -0.5002294182777405
H 8.51425552368164 6.542987823486328 1.6606346368789673
H 11.477818489074707 5.8141770362854 0.6302803754806519
