14
Generated by QM7 dataset
C 1.8779720067977905 -0.03467647358775139 0.13526660203933716
C 4.762109756469727 0.0 0.0
C 5.671276092529297 -1.4271589517593384 -2.35894513130188
O 8.328627586364746 -1.8878552913665771 -2.2630226612091064
C 5.672995567321777 2.5722384452819824 0.0
C 6.423746109008789 4.692322254180908 0.0
H 1.2006752490997314 0.9511558413505554 1.8266470432281494
H 1.1671704053878784 -1.9775984287261963 0.21151705086231232
H 1.0285401344299316 0.8926499485969543 -1.5116297006607056
H 5.510478973388672 -0.965083122253418 1.6760926246643066
H 5.256386756896973 -0.38935917615890503 -4.103748321533203
H 4.750147819519043 -3.2762749195098877 -2.48721981048584
H 9.156025886535645 -0.2488391399383545 -2.134559154510498
H 7.088589668273926 6.594123840332031 0.009429733268916607
