15
Generated by QM7 dataset
C 1.8465837240219116 -0.02579476125538349 0.6202459335327148
C 4.5967020988464355 -0.14959071576595306 -0.21119579672813416
C 5.400421619415283 2.294222116470337 -1.5403724908828735
O 7.986360549926758 2.1745645999908447 -2.362006425857544
C 8.525461196899414 -0.12715966999530792 -3.429248332977295
C 7.05529260635376 -2.172372579574585 -3.2470786571502686
O 4.863286018371582 -2.294996738433838 -1.8674463033676147
H 1.508984088897705 1.5789984464645386 1.8781988620758057
H 1.314587950706482 -1.7639459371566772 1.6090829372406006
H 0.5885363221168518 0.133357971906662 -1.0159924030303955
H 5.803802490234375 -0.48543286323547363 1.4438074827194214
H 5.2286834716796875 3.9113173484802246 -0.2604798376560211
H 4.220306396484375 2.6679720878601074 -3.2039740085601807
H 10.298629760742188 -0.08235426247119904 -4.444881439208984
H 7.4536848068237305 -3.9502267837524414 -4.173800468444824
