20
Generated by QM7 dataset
C 6.2683539390563965 -3.277163028717041 1.0590403079986572
C 5.292404651641846 -0.8517184853553772 -0.17812559008598328
N 2.5246174335479736 -0.8085381984710693 -0.002721205586567521
C 6.3724212646484375 1.54526686668396 1.077162742614746
C 9.150753021240234 1.9124784469604492 0.5849836468696594
C 10.038206100463867 3.575361728668213 -1.5498777627944946
C 10.342225074768066 4.439288139343262 1.140487551689148
H 8.306366920471191 -3.4942548274993896 0.7815718054771423
H 5.365442752838135 -4.947473049163818 0.23470398783683777
H 5.894811630249023 -3.2927722930908203 3.0959384441375732
H 5.809830665588379 -0.8699732422828674 -2.1834652423858643
H 1.9898626804351807 -0.8318763375282288 1.849172592163086
H 1.8027231693267822 -2.4144086837768555 -0.7843497395515442
H 6.0647358894348145 1.4725313186645508 3.1270809173583984
H 5.334092140197754 3.202197551727295 0.38508838415145874
H 10.273836135864258 0.2683221995830536 1.0639914274215698
H 8.641036987304688 4.531412124633789 -2.705369710922241
H 11.72197151184082 3.014113187789917 -2.5710480213165283
H 12.228322982788086 4.451023101806641 1.9388779401779175
H 9.145386695861816 5.965525150299072 1.802099585533142
