14
Generated by QM7 dataset
O 2.533914804458618 -0.6262174248695374 -1.6197409629821777
C 4.497661590576172 1.13765287399292 -2.1048524379730225
C 4.4259467124938965 3.1343753337860107 -0.12511876225471497
C 5.920852184295654 2.9022223949432373 2.2411017417907715
N 6.637814044952393 4.6526570320129395 0.2901296615600586
C 6.400370121002197 7.235099792480469 0.6779959201812744
O 4.711899757385254 8.327418327331543 1.824984073638916
H 2.5382046699523926 -1.8255888223648071 -3.0113162994384766
H 4.187104225158691 1.9755574464797974 -3.970201253890991
H 6.301084041595459 0.1222841814160347 -2.1238253116607666
H 2.637131690979004 4.13063907623291 -0.06738763302564621
H 7.232699871063232 1.353969931602478 2.4707980155944824
H 5.186240196228027 3.740429401397705 3.9566519260406494
H 7.983450412750244 8.254815101623535 -0.21403038501739502
