20
Generated by QM7 dataset
C 1.671878457069397 -0.7797765731811523 0.1653321385383606
C 4.413701057434082 -0.05593589320778847 -0.4057241976261139
C 5.49473762512207 -1.7753410339355469 -2.507005214691162
O 8.019279479980469 -1.0283700227737427 -3.0983572006225586
N 4.874888896942139 2.654139280319214 -1.008603572845459
C 3.4162280559539795 3.602649450302124 -3.1616063117980957
C 4.462871551513672 4.279757499694824 1.1975005865097046
H 0.908901572227478 0.31070876121520996 1.7493005990982056
H 1.5563595294952393 -2.778766632080078 0.6931515336036682
H 0.4393046200275421 -0.5011931657791138 -1.4713785648345947
H 5.544040679931641 -0.4757385551929474 1.2847113609313965
H 4.368763446807861 -1.6827255487442017 -4.240942478179932
H 5.543832778930664 -3.7481584548950195 -1.8858144283294678
H 8.035758018493652 0.8022076487541199 -2.8208887577056885
H 3.8097445964813232 2.51983642578125 -4.877401828765869
H 3.9639084339141846 5.554660797119141 -3.584867238998413
H 1.3781205415725708 3.5789711475372314 -2.8162965774536133
H 5.574314117431641 3.6255152225494385 2.8140857219696045
H 2.4734625816345215 4.36521053314209 1.7582768201828003
H 5.095306396484375 6.208034038543701 0.7919275164604187
