18
Generated by QM7 dataset
C 4.415269374847412 3.42667818069458 3.74721360206604
O 4.850114345550537 4.9740424156188965 1.596535086631775
C 5.869584083557129 3.5703163146972656 -0.4536098539829254
O 8.374774932861328 2.7092247009277344 0.013265877030789852
C 10.125946044921875 4.7722578048706055 0.13764765858650208
C 12.763833999633789 3.7255005836486816 0.7211762070655823
N 12.834774017333984 2.50173282623291 3.207451105117798
H 3.7117056846618652 4.625180244445801 5.276700973510742
H 6.163171768188477 2.5207245349884033 4.380895614624023
H 2.9828572273254395 1.9943791627883911 3.3258235454559326
H 5.841067790985107 4.761032581329346 -2.1464831829071045
H 4.67340612411499 1.9237034320831299 -0.8441784381866455
H 9.552925109863281 6.117610454559326 1.602790117263794
H 10.164005279541016 5.743577003479004 -1.6913237571716309
H 14.15913200378418 5.251340866088867 0.6748778820037842
H 13.278481483459473 2.3229458332061768 -0.7104425430297852
H 11.342306137084961 1.276415467262268 3.2879533767700195
H 14.425678253173828 1.4269700050354004 3.3394861221313477
