16
Generated by QM7 dataset
N 1.7561224699020386 0.16833680868148804 0.2818904519081116
C 4.504521369934082 0.1644817590713501 -0.1189393624663353
C 5.808413505554199 1.9802440404891968 1.7283624410629272
O 7.526249885559082 -0.011829685419797897 2.536900758743286
C 5.80108118057251 -1.9070926904678345 1.4937907457351685
C 6.941115379333496 -4.006824016571045 0.009637603536248207
C 9.415239334106445 -4.113612651824951 -0.4983585774898529
H 0.8557057976722717 -1.2971268892288208 -0.5873835682868958
H 0.8890783786773682 1.766648292541504 -0.3560999929904938
H 5.116547107696533 0.33257290720939636 -2.086522102355957
H 4.699729919433594 2.6853764057159424 3.3268439769744873
H 6.824802398681641 3.5457308292388916 0.841986358165741
H 4.641148567199707 -2.6790459156036377 3.0342764854431152
H 5.68153715133667 -5.4871978759765625 -0.6454359889030457
H 10.718923568725586 -2.6665170192718506 0.15289774537086487
H 10.202725410461426 -5.673864841461182 -1.5724222660064697
