11
Generated by QM7 dataset
N 1.8532544374465942 -0.06780337542295456 -0.13052338361740112
C 4.439098834991455 -0.20715178549289703 -0.2192838191986084
N 5.607856750488281 -2.3542397022247314 -0.23005525767803192
C 5.978375434875488 2.2557849884033203 -0.24931156635284424
O 4.875001907348633 4.204225063323975 0.36237388849258423
C 8.61167049407959 2.3353991508483887 -0.9780844449996948
C 10.797347068786621 2.41387939453125 -1.5824944972991943
H 1.2097837924957275 1.6759792566299438 0.3861655294895172
H 0.9685035347938538 -1.4817909002304077 0.8044942021369934
H 4.304625988006592 -3.781682252883911 -0.2588735818862915
H 12.737472534179688 2.477015256881714 -2.1165499687194824
