17
Generated by QM7 dataset
N 2.2169322967529297 0.109660804271698 1.0805264711380005
C 4.473888874053955 0.06933405250310898 0.15971964597702026
C 5.780653476715088 -2.464202880859375 -0.12445736676454544
C 7.685875415802002 -2.449821949005127 -2.2793121337890625
C 9.368884086608887 -0.11604808270931244 -2.1242034435272217
C 7.772556781768799 2.2722067832946777 -2.291651964187622
N 5.736187934875488 2.2387585639953613 -0.45323193073272705
H 1.6031113862991333 1.9311678409576416 1.2341800928115845
H 4.3691792488098145 -3.9495842456817627 -0.42537733912467957
H 6.738404273986816 -2.865769624710083 1.6685714721679688
H 8.840648651123047 -4.166487216949463 -2.203874111175537
H 6.686436653137207 -2.462332010269165 -4.094942092895508
H 10.426412582397461 -0.13796889781951904 -0.3406609296798706
H 10.755754470825195 -0.1399153172969818 -3.6611554622650146
H 8.958322525024414 3.936450719833374 -1.9680930376052856
H 6.960598468780518 2.450540065765381 -4.18901252746582
H 4.69993782043457 3.847085475921631 -0.4183097779750824
