20
Generated by QM7 dataset
C 1.8045183420181274 -0.08233536779880524 0.5036876201629639
C 4.680908203125 -0.06905059516429901 0.649536669254303
C 5.8744215965271 2.4628422260284424 -0.12555339932441711
N 5.017619609832764 4.568204879760742 1.505752682685852
C 8.805216789245605 2.403977394104004 -0.023999521508812904
C 10.000638961791992 0.6046556830406189 -1.9208877086639404
O 9.721884727478027 4.898982524871826 -0.5562976002693176
H 1.086573600769043 -1.9887856245040894 0.8667228817939758
H 1.153394341468811 0.49934121966362 -1.3720356225967407
H 0.9645729064941406 1.1769781112670898 1.9115146398544312
H 5.373171806335449 -1.5679435729980469 -0.599288821220398
H 5.26298189163208 -0.5776703953742981 2.57242751121521
H 5.294313430786133 2.93994140625 -2.0575337409973145
H 5.267536163330078 4.081033706665039 3.356588363647461
H 3.1169331073760986 4.809901237487793 1.284919261932373
H 9.449254035949707 1.9170515537261963 1.8855119943618774
H 9.35323715209961 1.018638014793396 -3.8416430950164795
H 9.570026397705078 -1.367235779762268 -1.485135793685913
H 12.05847454071045 0.8287394046783447 -1.9277095794677734
H 8.440896034240723 6.013184070587158 0.18867026269435883
