15
Generated by QM7 dataset
C 1.8650462627410889 -0.12014878541231155 0.047016385942697525
C 4.685368061065674 0.007124267518520355 0.16329123079776764
C 5.993587493896484 2.155667304992676 -0.13434062898159027
C 8.804044723510742 2.2134552001953125 0.07555124908685684
O 9.73789119720459 -0.060414545238018036 1.1663200855255127
C 8.52444076538086 -2.192819356918335 0.06549790501594543
O 5.8656721115112305 -2.288892984390259 0.5504583120346069
H 1.2421926259994507 -1.9652962684631348 -0.6522767543792725
H 1.093924641609192 1.316893458366394 -1.225676417350769
H 1.058964729309082 0.16331012547016144 1.931148886680603
H 5.029922008514404 3.931915283203125 -0.484015554189682
H 9.668330192565918 2.4966306686401367 -1.7841471433639526
H 9.389992713928223 3.7746901512145996 1.298336386680603
H 9.364972114562988 -3.8927979469299316 0.8900610208511353
H 8.874966621398926 -2.257599115371704 -1.978996753692627
