13
Generated by QM7 dataset
C 1.889726161956787 0.0 0.0
C 4.138802528381348 0.0 0.0
C 6.79575777053833 0.0 0.0
C 8.258424758911133 -2.031965732574463 -0.17024542391300201
O 10.829339981079102 -1.5928502082824707 -0.19675828516483307
C 10.994388580322266 1.1119526624679565 -0.5090166330337524
C 8.432581901550293 2.262474536895752 0.15465518832206726
H -0.1231156587600708 -0.00489439070224762 0.0006047123461030424
H 7.721930980682373 -3.99440860748291 -0.2580420970916748
H 11.494108200073242 1.4993842840194702 -2.484951972961426
H 12.507493019104004 1.8500986099243164 0.694776713848114
H 7.913681507110596 3.7617645263671875 -1.1718380451202393
H 8.436965942382812 3.038679599761963 2.074049949645996
