16
Generated by QM7 dataset
C 1.6029980182647705 0.2217782586812973 -0.02369716577231884
C 4.412132740020752 -0.013927281834185123 -0.23209616541862488
C 6.0068535804748535 1.889480471611023 0.28026527166366577
C 8.822242736816406 1.7501887083053589 0.1306556612253189
C 10.081650733947754 -0.4865666925907135 -1.1354986429214478
N 10.077569007873535 3.6054084300994873 1.1640145778656006
O 12.690890312194824 3.2482125759124756 0.9793505668640137
H 0.8837493062019348 -1.14810311794281 1.3471291065216064
H 0.7287728786468506 -0.1694139540195465 -1.855446457862854
H 1.016767144203186 2.1097280979156494 0.581619918346405
H 5.0989155769348145 -1.8603030443191528 -0.8029446601867676
H 5.292574882507324 3.708587646484375 0.9118495583534241
H 8.826703071594238 -1.420393705368042 -2.480454444885254
H 10.666181564331055 -1.841103434562683 0.3112001121044159
H 11.741888999938965 0.12595024704933167 -2.203401803970337
H 13.352181434631348 4.748446941375732 1.8201086521148682
