15
Generated by QM7 dataset
C 1.7383968830108643 0.38658127188682556 -0.029668699949979782
C 4.26080322265625 0.25010526180267334 -0.06449635326862335
C 5.800023078918457 2.4449844360351562 -0.0033448152244091034
C 7.156203746795654 4.266831398010254 0.04503217339515686
C 8.828478813171387 6.395400047302246 0.10446406155824661
C 9.114110946655273 7.968994140625 -2.250720500946045
C 7.74116849899292 9.02253532409668 -0.002910178154706955
H 0.6012730598449707 -1.3192745447158813 -0.07817797362804413
H 0.753547191619873 2.184561252593994 0.04745102301239967
H 5.195121765136719 -1.5753512382507324 -0.1425609439611435
H 10.512679100036621 6.1491875648498535 1.252132534980774
H 8.007355690002441 7.4821248054504395 -3.9052703380584717
H 10.975056648254395 8.70885944366455 -2.6804821491241455
H 8.670724868774414 10.484333038330078 1.0906742811203003
H 5.709429740905762 9.247337341308594 -0.13864921033382416
