14
Generated by QM7 dataset
C 1.8758177757263184 -0.05943188816308975 0.021297212690114975
C 4.762109756469727 0.0 0.0
C 5.781503677368164 -1.442522406578064 -2.2835450172424316
C 5.672995567321777 2.5722384452819824 0.0
C 6.423746109008789 4.692322254180908 0.0
C 7.3928542137146 7.430988788604736 -0.0012094246922060847
N 8.125085830688477 9.500465393066406 -0.0022298768162727356
H 1.126163363456726 0.9228477478027344 1.6835192441940308
H 1.1798126697540283 -2.008098602294922 0.0708080381155014
H 1.083946943283081 0.8602222204208374 -1.657686710357666
H 5.433642864227295 -0.9568250179290771 1.7120919227600098
H 5.161239147186279 -0.5840765237808228 -4.06400728225708
H 5.133573532104492 -3.4082155227661133 -2.2619266510009766
H 7.8526434898376465 -1.4587740898132324 -2.2862284183502197
