16
Generated by QM7 dataset
C 2.5987324714660645 0.4765889346599579 1.5099289417266846
N 5.327157020568848 0.5971345901489258 1.841802716255188
C 6.511656284332275 2.1911184787750244 -0.1003255620598793
C 9.400008201599121 1.9430919885635376 0.004232986364513636
O 10.111319541931152 -0.5847757458686829 -0.637347936630249
C 10.562094688415527 3.833895206451416 -1.8148930072784424
O 11.846126556396484 3.1862106323242188 -3.6402740478515625
H 1.777665376663208 -0.7241808772087097 2.9790587425231934
H 2.089867115020752 -0.32915249466896057 -0.327187180519104
H 1.7450675964355469 2.3527090549468994 1.6852388381958008
H 6.079192161560059 -1.181362271308899 1.6847286224365234
H 5.950445175170898 4.164994239807129 0.1822451949119568
H 5.861193656921387 1.5985004901885986 -1.9791101217269897
H 10.127495765686035 2.359039545059204 1.8973227739334106
H 11.114084243774414 -0.46353092789649963 -2.1885862350463867
H 10.219903945922852 5.844658374786377 -1.3847346305847168
