17
Generated by QM7 dataset
C 1.9086990356445312 0.030235618352890015 -0.15546776354312897
C 4.689072132110596 0.24160148203372955 0.17667049169540405
O 6.140721797943115 -1.2219536304473877 -1.5660349130630493
C 6.321908473968506 1.485702633857727 -1.8103954792022705
C 8.558286666870117 2.925541639328003 -0.9751364588737488
C 8.041370391845703 5.518567085266113 0.07441741228103638
C 10.934711456298828 2.047423839569092 -1.1513912677764893
H 0.9667271971702576 1.668892741203308 0.6848745346069336
H 1.204473614692688 -1.6712738275527954 0.7869008779525757
H 1.367254614830017 -0.06935294717550278 -2.1509807109832764
H 5.272940635681152 0.24836669862270355 2.1347291469573975
H 5.3937506675720215 2.296130657196045 -3.4511313438415527
H 7.055934906005859 6.676459312438965 -1.3294979333877563
H 9.779918670654297 6.510748863220215 0.6003848910331726
H 6.854584693908691 5.388175964355469 1.7643427848815918
H 11.305777549743652 0.178711399435997 -1.9171838760375977
H 12.55142879486084 3.147263288497925 -0.5356050729751587
