16
Generated by QM7 dataset
C 1.5338717699050903 0.17939169704914093 0.16425499320030212
C 4.341910362243652 -0.006198301911354065 0.42207032442092896
C 5.944114685058594 1.8389302492141724 -0.262993186712265
C 8.778533935546875 1.8366436958312988 -0.07209305465221405
C 10.003321647644043 -0.5092812180519104 1.06461501121521
O 9.736795425415039 2.1725614070892334 -2.5655300617218018
H 0.8386037945747375 -1.337321400642395 -1.057245135307312
H 0.9380411505699158 1.9859321117401123 -0.6478170156478882
H 0.6430171132087708 -0.019029542803764343 2.0197582244873047
H 5.0451154708862305 -1.7637759447097778 1.219591498374939
H 5.165604114532471 3.577346086502075 -1.0471161603927612
H 9.358490943908691 3.4870171546936035 1.0351920127868652
H 9.591493606567383 -2.198072671890259 -0.061189331114292145
H 9.375932693481445 -0.8300433158874512 3.009143114089966
H 12.063860893249512 -0.30383017659187317 1.0718715190887451
H 9.030717849731445 0.8202922940254211 -3.5910654067993164
