13
Generated by QM7 dataset
N 1.8590936660766602 -0.13022102415561676 0.3025829493999481
C 4.430727481842041 -0.021864131093025208 0.07861261069774628
N 5.661071300506592 -2.1365621089935303 -0.06355149298906326
C 5.901085376739502 2.3985538482666016 0.004762109834700823
C 4.735086917877197 4.652505874633789 -0.06965530663728714
C 8.719026565551758 2.3643875122070312 -0.03471427038311958
O 10.027113914489746 4.283498764038086 -0.037397678941488266
H 0.9928998947143555 1.381597638130188 1.0966836214065552
H 1.1193037033081055 -1.783920407295227 0.9166494607925415
H 4.422072410583496 -3.6182963848114014 -0.05674847587943077
H 2.7017414569854736 4.862813472747803 -0.10898050665855408
H 5.822832107543945 6.395513534545898 -0.13891376554965973
H 9.588621139526367 0.47254490852355957 -0.05752326175570488
