14
Generated by QM7 dataset
C -1.9379708766937256 0.000453534274129197 -2.3961727619171143
C -1.0251953601837158 1.8891969919204712 -0.2503509223461151
N -2.4739348888397217 0.0004346370114944875 1.4596433639526367
C -1.024307131767273 -1.889669418334961 -0.2502942383289337
C 1.733955979347229 -1.4559205770492554 0.44663676619529724
O 3.2659947872161865 0.0004913287702947855 -1.2182308435440063
C 1.7355055809020996 1.4552024602890015 0.44659897685050964
H -3.9628124237060547 0.0004346370114944875 -2.83428692817688
H -0.8503578901290894 0.0001511780865257606 -4.151822566986084
H -1.7522107362747192 3.8170011043548584 -0.26853007078170776
H -1.9116469621658325 -9.448630589758977e-05 3.2999720573425293
H -1.7527209520339966 -3.816831111907959 -0.2688513398170471
H 2.436631679534912 -2.4474599361419678 2.0816845893859863
H 2.4368207454681396 2.447195291519165 2.0820624828338623
