15
Generated by QM7 dataset
C 9.996557235717773 -1.6614471673965454 -1.8543126583099365
O 11.096698760986328 0.6697945594787598 -1.0916948318481445
N 9.169952392578125 2.4803032875061035 -0.8946719169616699
C 10.156635284423828 4.58617639541626 -0.15650711953639984
C 8.448776245117188 6.762214660644531 0.16501088440418243
C 7.0552167892456055 7.112778186798096 2.6196138858795166
N 9.287266731262207 8.623027801513672 2.0446836948394775
H 11.495450019836426 -3.075831651687622 -1.997175931930542
H 9.094420433044434 -1.4562040567398071 -3.703768730163574
H 8.614335060119629 -2.2940330505371094 -0.451984703540802
H 12.192513465881348 4.835374355316162 0.22402703762054443
H 7.609832763671875 7.5112080574035645 -1.5461927652359009
H 7.271137237548828 5.688000202178955 4.073966026306152
H 5.249205589294434 8.072834014892578 2.587526321411133
H 8.785449981689453 10.406664848327637 1.501387357711792
