17
Generated by QM7 dataset
C 2.1259984970092773 0.33272409439086914 0.3879418671131134
C 4.577389240264893 -0.13934840261936188 -0.01619495265185833
C 5.67545223236084 -2.7632899284362793 -0.29237842559814453
C 7.991803169250488 -2.3766896724700928 -2.000142812728882
C 8.739964485168457 0.3447994291782379 -1.658234715461731
C 7.3931379318237305 2.4283926486968994 -3.0520589351654053
C 6.579346179962158 1.7401732206344604 -0.4267001748085022
H 1.4291431903839111 2.258392810821533 0.4969412684440613
H 0.7667752504348755 -1.1864267587661743 0.6068288683891296
H 4.354420185089111 -4.130922317504883 -1.103581190109253
H 6.28173303604126 -3.443307876586914 1.5688695907592773
H 9.522141456604004 -3.6636877059936523 -1.471095085144043
H 7.506521224975586 -2.7418792247772217 -3.9809348583221436
H 10.634414672851562 0.6367999315261841 -0.9550675749778748
H 8.383127212524414 4.204338073730469 -3.3046019077301025
H 6.167064666748047 1.9408810138702393 -4.619359970092773
H 7.007955074310303 3.0067055225372314 1.1231776475906372
