19
Generated by QM7 dataset
N 4.335579872131348 -0.062360960990190506 6.567440986633301
C 6.072219371795654 -0.3557409346103668 4.431351184844971
C 7.200291156768799 2.1983184814453125 3.60270619392395
N 8.866557121276855 1.8925985097885132 1.4017232656478882
C 10.120163917541504 4.336997032165527 0.7912472486495972
C 12.567453384399414 2.8269925117492676 0.3541724681854248
C 11.379080772399902 0.8896074891090393 2.1713709831237793
H 3.6142523288726807 -1.7900241613388062 7.023828506469727
H 2.8315279483795166 1.0099074840545654 6.017209053039551
H 5.05465841293335 -1.2303061485290527 2.8526360988616943
H 7.5843400955200195 -1.6534347534179688 4.994943141937256
H 8.167433738708496 3.0870187282562256 5.209238052368164
H 5.644801139831543 3.4597485065460205 3.0683860778808594
H 10.255770683288574 5.702475547790527 2.34692645072937
H 9.36943244934082 5.2987165451049805 -0.8773242831230164
H 12.80423641204834 2.136788845062256 -1.584667682647705
H 14.318549156188965 3.7178282737731934 0.9869850873947144
H 11.703716278076172 -1.0911846160888672 1.6764516830444336
H 11.909488677978516 1.1805307865142822 4.154789447784424
