15
Generated by QM7 dataset
C 1.7616405487060547 -0.09624375402927399 0.17818227410316467
C 4.613804340362549 0.05784451588988304 -0.030046645551919937
C 6.039281368255615 2.0014846324920654 1.676621675491333
O 4.610969543457031 3.2190918922424316 3.6562042236328125
C 7.9264373779296875 -0.06734983623027802 2.5405290126800537
C 6.105875015258789 -2.009232521057129 1.3796323537826538
O 5.892884254455566 -4.282478332519531 1.5670742988586426
H 1.0392359495162964 -1.6848609447479248 -0.9337703585624695
H 0.8870563507080078 1.6318162679672241 -0.5489654541015625
H 1.1402229070663452 -0.3601629137992859 2.1332740783691406
H 5.198202133178711 0.18513646721839905 -2.0178117752075195
H 6.967231273651123 3.471275806427002 0.5474536418914795
H 3.9430458545684814 1.8809010982513428 4.7279815673828125
H 9.767106056213379 -0.008919507265090942 1.6029980182647705
H 8.17546558380127 -0.25611457228660583 4.580280303955078
