17
Generated by QM7 dataset
C 1.8828285932540894 -0.4571247398853302 0.5254194736480713
C 4.604450225830078 -0.1341516524553299 -0.38909462094306946
C 5.2397003173828125 -2.1275670528411865 -2.3906548023223877
C 5.147027969360352 2.573183298110962 -1.2951993942260742
O 7.783895492553711 2.8322649002075195 -1.794672966003418
C 3.6160287857055664 3.312803268432617 -3.621622323989868
O 4.596588611602783 3.7239887714385986 -5.687433242797852
H 1.416973352432251 0.9543495178222656 1.9648616313934326
H 1.6189284324645996 -2.327991485595703 1.371185302734375
H 0.5241533517837524 -0.27538979053497314 -1.0238158702850342
H 5.856072425842285 -0.5032907724380493 1.2257519960403442
H 4.040744781494141 -1.9357409477233887 -4.065953731536865
H 4.959416389465332 -4.032883644104004 -1.6314005851745605
H 7.214029312133789 -1.9822282791137695 -2.9915308952331543
H 4.6818718910217285 3.9305169582366943 0.19677717983722687
H 7.963400363922119 2.9152426719665527 -3.6353228092193604
H 1.557550072669983 3.4837100505828857 -3.347933292388916
