14
Generated by QM7 dataset
O 1.9204342365264893 -0.09764214605093002 -0.6379148364067078
C 4.565918445587158 -0.03142614662647247 -0.1045207530260086
C 5.531965255737305 2.707637310028076 0.0
C 4.575215816497803 4.049910068511963 2.3489296436309814
C 3.1138906478881836 6.119821548461914 2.32991886138916
C 8.260729789733887 2.707637310028076 0.0
N 10.435823440551758 2.707637310028076 0.0
H 1.3896290063858032 -1.8567125797271729 -0.5505716800689697
H 5.519341945648193 -1.089049220085144 -1.6105380058288574
H 4.899606227874756 -1.0282000303268433 1.6826499700546265
H 4.8354692459106445 3.7084362506866455 -1.6782846450805664
H 5.122159481048584 3.2552988529205322 4.167809963226318
H 2.4916417598724365 6.993026256561279 0.5787475109100342
H 2.4900920391082764 6.984314441680908 4.08677864074707
