14
Generated by QM7 dataset
C 2.224245548248291 0.19173161685466766 -0.44304630160331726
N 4.9119462966918945 0.3507331609725952 0.07182849198579788
C 6.371098041534424 -1.9718536138534546 0.13976414501667023
C 7.102346897125244 -2.7693557739257812 -2.4160337448120117
C 7.709005355834961 -3.4105398654937744 -4.505787372589111
C 6.109994888305664 2.6654775142669678 0.08921396732330322
O 5.089164733886719 4.727263450622559 -0.1501954346895218
H 1.3271546363830566 2.0511653423309326 -0.36154240369796753
H 1.3439165353775024 -1.0376297235488892 0.966330349445343
H 1.9416935443878174 -0.6029549241065979 -2.32991886138916
H 5.254213333129883 -3.4324796199798584 1.0895216464996338
H 8.075347900390625 -1.656363844871521 1.273713231086731
H 8.246915817260742 -3.9665162563323975 -6.366354942321777
H 8.167283058166504 2.5087249279022217 0.3869214355945587
