13
Generated by QM7 dataset
N 1.6784735918045044 0.25354456901550293 -0.2377653419971466
C 4.215431213378906 0.055104415863752365 -0.11487644910812378
C 5.937028408050537 2.003619909286499 -0.05914842709898949
C 8.480618476867676 1.1165069341659546 0.08445186167955399
C 8.618757247924805 -1.4796744585037231 0.13218633830547333
N 10.726860046386719 -2.9030160903930664 0.2657899856567383
S 5.682198524475098 -2.8162777423858643 -0.0032314315903931856
H 0.8088027834892273 1.911250114440918 0.17942950129508972
H 0.6169577836990356 -1.3028149604797363 0.1340193748474121
H 5.41281795501709 3.979574203491211 -0.1189015656709671
H 10.119898796081543 2.3372700214385986 0.15448510646820068
H 10.595769882202148 -4.782065391540527 -0.10162947326898575
H 12.445962905883789 -2.1438941955566406 -0.11147494614124298
