22
Generated by QM7 dataset
C 3.311253786087036 -0.9435024857521057 -1.284484624862671
C 6.047974109649658 -0.2420550137758255 -0.7638651132583618
N 6.283981800079346 2.5015628337860107 -0.5306729078292847
C 8.896982192993164 3.2429590225219727 -0.02074919268488884
C 9.146085739135742 6.130573749542236 0.2599318325519562
C 11.859505653381348 6.8175458908081055 0.988270103931427
C 8.397772789001465 7.5305962562561035 -2.1586153507232666
H 3.127307891845703 -2.995631694793701 -1.4780114889144897
H 2.636356830596924 -0.075872503221035 -3.0381126403808594
H 2.0723869800567627 -0.33684366941452026 0.25832557678222656
H 7.226199150085449 -0.9312570095062256 -2.320356845855713
H 6.668238639831543 -1.1757497787475586 0.9784623980522156
H 5.142398357391357 3.1335628032684326 0.8890594840049744
H 10.125814437866211 2.5935356616973877 -1.5593641996383667
H 9.548521995544434 2.3365707397460938 1.7276065349578857
H 7.898828506469727 6.768167495727539 1.790383219718933
H 13.20217514038086 6.23037052154541 -0.4740000069141388
H 12.400136947631836 5.897173881530762 2.7614190578460693
H 12.055545806884766 8.86054801940918 1.2544946670532227
H 9.559236526489258 6.9284539222717285 -3.7628226280212402
H 8.641887664794922 9.573182106018066 -1.926386833190918
H 6.414013862609863 7.19698429107666 -2.6406655311584473
