18
Generated by QM7 dataset
C 2.248811960220337 -0.4328228831291199 -0.8516806960105896
N 4.991182327270508 -0.18625140190124512 -0.9120007157325745
C 5.81183385848999 1.985232949256897 0.59184330701828
C 8.634858131408691 2.0833475589752197 0.5407073497772217
O 9.778312683105469 3.0756993293762207 2.7958309650421143
C 10.188061714172363 0.4485265016555786 2.2785561084747314
C 12.836947441101074 -0.2252364605665207 1.6386570930480957
H 1.6827255487442017 -2.079983711242676 -1.9654663801193237
H 1.3209185600280762 1.2310998439788818 -1.6566095352172852
H 1.5642207860946655 -0.7237083911895752 1.0792981386184692
H 5.556324005126953 0.05514220893383026 -2.7369847297668457
H 5.133289813995361 1.8042727708816528 2.5427021980285645
H 5.054053783416748 3.7470433712005615 -0.18950173258781433
H 9.406829833984375 2.666989326477051 -1.2583686113357544
H 9.246600151062012 -0.9439182281494141 3.4411346912384033
H 13.819454193115234 1.3165721893310547 0.6674512624740601
H 12.870338439941406 -1.8865891695022583 0.4065556824207306
H 13.89383316040039 -0.6768999099731445 3.35847806930542
