17
Generated by QM7 dataset
C 3.5365846157073975 -1.0253087282180786 -0.961681604385376
C 6.230578422546387 -0.6708149909973145 -0.03220093250274658
N 7.453987121582031 1.3371134996414185 -1.4462451934814453
C 9.904716491699219 2.1030006408691406 -1.0658621788024902
N 11.620133399963379 0.642998218536377 -0.10414280742406845
C 10.801372528076172 4.691188335418701 -1.7414581775665283
C 9.407755851745605 6.459953308105469 -2.8931140899658203
H 2.5986568927764893 -2.5290205478668213 0.1045963391661644
H 3.5077097415924072 -1.5374244451522827 -2.9670968055725098
H 2.4336838722229004 0.7114062905311584 -0.7357837557792664
H 7.250595569610596 -2.455434560775757 -0.26926708221435547
H 6.2119832038879395 -0.19432054460048676 1.9820959568023682
H 6.2540106773376465 2.7561278343200684 -1.9061100482940674
H 10.874844551086426 -1.0994805097579956 0.23033872246742249
H 12.754706382751465 5.077996253967285 -1.238677740097046
H 7.469142436981201 6.171694278717041 -3.4737701416015625
H 10.237931251525879 8.288811683654785 -3.313937187194824
