18
Generated by QM7 dataset
C 1.8672950267791748 -0.10811123251914978 0.018424829468131065
C 4.740075588226318 -0.04983207955956459 0.024169597774744034
C 5.744030475616455 2.6588823795318604 0.002116493182256818
C 8.628470420837402 2.7097160816192627 0.011470637284219265
C 9.641666412353516 5.403936386108398 0.010317904874682426
O 12.327194213867188 5.367672443389893 -0.005650280974805355
H 1.191037654876709 -2.062239170074463 0.040364548563957214
H 1.1109700202941895 0.8144152760505676 -1.6714249849319458
H 1.1031843423843384 0.8546475172042847 1.6818184852600098
H 5.444414138793945 -1.0750652551651 -1.6323264837265015
H 5.4361371994018555 -1.0442248582839966 1.7028132677078247
H 5.025594234466553 3.6778604984283447 1.6583291292190552
H 5.036649227142334 3.6477761268615723 -1.6766972541809082
H 9.371397972106934 1.6988826990127563 -1.6382602453231812
H 9.357205390930176 1.7013204097747803 1.6696674823760986
H 9.0101957321167 6.447481155395508 1.6818562746047974
H 9.008513450622559 6.4288859367370605 -1.6709147691726685
H 12.877538681030273 4.487948417663574 1.5111006498336792
