11
Generated by QM7 dataset
C 2.069363594055176 -0.05861930549144745 0.2031833529472351
C 4.544300079345703 -0.017158713191747665 -0.2774306833744049
O 6.005965232849121 -2.1056652069091797 -0.8078768253326416
C 8.425646781921387 -1.1798126697540283 -1.1744270324707031
C 8.712053298950195 1.3164210319519043 -0.9392883777618408
C 6.168500900268555 2.264402151107788 -0.3297572135925293
O 5.580606937408447 4.449511528015137 0.04057241976261139
H 1.050649881362915 1.675620198249817 0.605373740196228
H 1.0293338298797607 -1.8220739364624023 0.20136921107769012
H 9.825234413146973 -2.590228796005249 -1.6135615110397339
H 10.370326042175293 2.4677934646606445 -1.1301884651184082
