14
Generated by QM7 dataset
C 1.7760213613510132 0.03660399466753006 0.011621816083788872
C 4.649652481079102 0.025530200451612473 0.008749431930482388
C 5.720938205718994 2.707637310028076 0.0
C 8.449626922607422 2.6895148754119873 -0.002721205586567521
C 10.698665618896484 2.674586057662964 -0.004969979636371136
C 13.599716186523438 2.653780221939087 -0.00788015779107809
N 15.794840812683105 2.637868642807007 -0.010072240605950356
H 1.0524641275405884 -1.9010077714920044 0.017895705997943878
H 1.036665916442871 0.9923707842826843 -1.6673998832702637
H 1.040067434310913 1.0019516944885254 1.6866750717163086
H 5.32337760925293 -1.0151987075805664 -1.6530568599700928
H 5.3267412185668945 -1.0056933164596558 1.6751099824905396
H 5.027011871337891 3.73551607131958 1.6598598957061768
H 5.023629188537598 3.726029634475708 -1.6642818450927734
