13
Generated by QM7 dataset
C 1.7535146474838257 0.07188518345355988 -0.015401268377900124
C 4.5497236251831055 -0.04905728995800018 -0.0013606027932837605
C 6.223151683807373 1.9531075954437256 0.005669178441166878
O 8.649011611938477 1.1177918910980225 0.01814137026667595
C 8.54656982421875 -1.43836510181427 0.019029542803764343
O 10.773309707641602 -2.5589914321899414 0.03070805035531521
C 6.083916664123535 -2.261662006378174 0.007199856452643871
H 1.083153247833252 2.0290744304656982 0.0033259179908782244
H 0.9809190630912781 -0.8863760232925415 1.6472364664077759
H 0.999929666519165 -0.8482791781425476 -1.7080100774765015
H 5.999767303466797 3.984222888946533 0.0033826096914708614
H 10.44625473022461 -4.3643035888671875 0.030254514887928963
H 5.453485012054443 -4.203185558319092 0.005007774103432894
