14
Generated by QM7 dataset
N 3.338031053543091 -3.216521739959717 0.39859992265701294
C 4.26016092300415 -1.217739462852478 1.7321608066558838
O 3.522014856338501 -0.7399789690971375 3.8737118244171143
C 6.303408145904541 0.27712833881378174 0.4123382568359375
C 8.901970863342285 -0.6991608738899231 1.1498605012893677
C 9.517322540283203 -3.2223987579345703 -0.03210644796490669
O 8.147970199584961 -4.329173564910889 -1.5456069707870483
H 4.4281005859375 -3.997772216796875 -0.9850008487701416
H 2.1343700885772705 -4.384504795074463 1.313246250152588
H 6.095141410827637 2.2565219402313232 0.9854921698570251
H 6.013505458831787 0.20943835377693176 -1.6377311944961548
H 9.066773414611816 -0.9063315391540527 3.201460599899292
H 10.354225158691406 0.632245659828186 0.5160275101661682
H 11.345499992370605 -4.047207355499268 0.5422757863998413
