20
Generated by QM7 dataset
C 1.871717095375061 0.05245879665017128 -0.020220069214701653
C 4.739584445953369 0.0011905274586752057 0.07866930216550827
C 5.858642578125 2.059536933898926 1.7375653982162476
N 8.446206092834473 1.166641354560852 2.1755471229553223
C 8.20418930053711 -1.5726490020751953 2.626284599304199
C 10.556463241577148 -2.988016128540039 1.7650798559188843
C 5.812797546386719 -2.4166383743286133 1.2258275747299194
H 1.1547927856445312 -1.4955103397369385 -1.1890723705291748
H 1.2021492719650269 1.8352831602096558 -0.8334826231002808
H 1.0436012744903564 -0.13528549671173096 1.8672950267791748
H 5.476067066192627 0.20520536601543427 -1.8515725135803223
H 4.857767581939697 2.2380216121673584 3.5430474281311035
H 5.849155902862549 3.9067442417144775 0.8074232935905457
H 9.46822738647461 1.4501758813858032 0.5634218454360962
H 7.950928211212158 -1.8845860958099365 4.660178184509277
H 10.897521018981934 -2.7383644580841064 -0.2622750997543335
H 10.357230186462402 -5.015692234039307 2.1293811798095703
H 12.23306655883789 -2.322700262069702 2.7812612056732178
H 6.18418550491333 -3.820629358291626 -0.24944384396076202
H 4.481674671173096 -3.2573964595794678 2.5741660594940186
