16
Generated by QM7 dataset
C 1.2269803285598755 0.3616935908794403 0.062285374850034714
C 3.9000356197357178 -0.5923157334327698 0.03186078369617462
C 4.44308614730835 -3.0562729835510254 0.30743953585624695
C 5.92466926574707 1.3759851455688477 -0.35814088582992554
O 5.993455410003662 2.9942142963409424 1.804537296295166
N 7.846293926239014 4.856993198394775 1.425118088722229
C 8.251357078552246 5.982797145843506 3.5426695346832275
H 0.9782923460006714 1.7994728088378906 1.5268419981002808
H -0.13177059590816498 -1.154282569885254 0.43987154960632324
H 0.7454780340194702 1.196744680404663 -1.7696340084075928
H 2.970309257507324 -4.4589409828186035 0.5797680020332336
H 6.3800554275512695 -3.7379915714263916 0.28461164236068726
H 5.512387752532959 2.4897141456604004 -2.0575528144836426
H 7.789167881011963 0.4983207881450653 -0.5925236344337463
H 9.649187088012695 7.520788669586182 3.6527462005615234
H 7.2675089836120605 5.471834182739258 5.308712959289551
