21
Generated by QM7 dataset
C 4.136251449584961 -1.0090759992599487 2.461916208267212
C 4.695175647735596 0.1264982670545578 -0.12094247341156006
C 5.804595947265625 2.766634702682495 0.06181294098496437
C 3.8075146675109863 4.806083679199219 0.1889348179101944
C 8.322958946228027 3.2462470531463623 0.06763330101966858
C 10.329545021057129 1.2140356302261353 0.08908168971538544
C 9.450634002685547 5.8675994873046875 0.04798014834523201
H 3.343700408935547 -2.9082696437835693 2.2467143535614014
H 2.76655912399292 0.1323942095041275 3.5123395919799805
H 5.854730606079102 -1.1625784635543823 3.605276107788086
H 2.9460642337799072 0.19381031394004822 -1.2325550317764282
H 5.944303512573242 -1.1380308866500854 -1.1805119514465332
H 2.268559455871582 4.2355756759643555 1.4500623941421509
H 3.010806083679199 5.13720178604126 -1.6913427114486694
H 4.51221227645874 6.598186492919922 0.9340349435806274
H 9.600659370422363 -0.6721566915512085 0.5043678879737854
H 11.73865795135498 1.6278856992721558 1.5488951206207275
H 11.290811538696289 1.1451929807662964 -1.7416850328445435
H 8.117923736572266 7.334971904754639 -0.5255139470100403
H 11.016271591186523 5.957531929016113 -1.304194450378418
H 10.185321807861328 6.340125560760498 1.9224939346313477
