17
Generated by QM7 dataset
N 2.3489484786987305 0.7189462780952454 -1.9326229095458984
C 4.137063980102539 0.3813278377056122 0.15072456002235413
C 6.139984607696533 2.3875932693481445 0.12950293719768524
N 6.133842945098877 4.387282848358154 -1.788682460784912
C 5.478183746337891 5.085593223571777 0.8010171055793762
C 7.31792688369751 6.607578754425049 2.1881327629089355
C 7.498452186584473 6.770453929901123 4.708233833312988
H 0.9875330924987793 -0.6378581523895264 -1.801305890083313
H 3.2812259197235107 0.3535110652446747 -3.5820515155792236
H 5.021115779876709 -1.4829058647155762 -0.019161822274327278
H 3.1241140365600586 0.42732375860214233 1.9546760320663452
H 7.97273588180542 1.6753745079040527 0.7030348181724548
H 4.501724720001221 4.217433929443359 -2.8206241130828857
H 3.50986385345459 5.574692249298096 1.1094393730163574
H 8.637428283691406 7.706794738769531 1.0536545515060425
H 6.230672836303711 5.730462074279785 5.938691139221191
H 8.922889709472656 7.9596967697143555 5.58149528503418
