15
Generated by QM7 dataset
O 1.05556321144104 2.3015730381011963 1.9276340007781982
C 2.9129183292388916 2.2013230323791504 0.5510252714157104
C 5.237621784210205 3.6171059608459473 1.147309422492981
C 7.251672744750977 3.501889228820801 -0.38559862971305847
C 9.654213905334473 4.817460060119629 0.033259179443120956
C 10.804112434387207 6.26425313949585 -2.132612705230713
C 9.6993408203125 7.663255214691162 0.07264107465744019
H 2.9427950382232666 1.0576608180999756 -1.1902439594268799
H 5.2131876945495605 4.738658428192139 2.8597793579101562
H 7.167901515960693 2.3307125568389893 -2.075524091720581
H 10.952153205871582 3.840301513671875 1.2891144752502441
H 9.803030014038086 6.363520622253418 -3.917836904525757
H 12.844109535217285 6.238137245178223 -2.3259506225585938
H 10.991837501525879 8.57905387878418 1.37360417842865
H 7.9574666023254395 8.698995590209961 -0.22886472940444946
