15
Generated by QM7 dataset
O 1.7720528841018677 5.276134490966797 1.1095905303955078
N 4.000852584838867 4.021488189697266 1.7669695615768433
C 5.401366233825684 3.218940496444702 -0.28054875135421753
N 4.512307167053223 3.1233203411102295 -2.5612213611602783
C 8.138898849487305 2.440808057785034 0.17576342821121216
C 9.76489543914795 4.763583660125732 0.141710564494133
C 11.18315315246582 5.561690807342529 2.0817601680755615
H 0.4893256723880768 3.9615840911865234 1.2997725009918213
H 5.018904685974121 4.901307106018066 3.150003433227539
H 2.706352472305298 3.8223111629486084 -2.464108467102051
H 8.74410343170166 1.139769434928894 -1.3152872323989868
H 8.260918617248535 1.4444688558578491 1.987330436706543
H 9.77334213256836 5.837912082672119 -1.6139583587646484
H 11.263466835021973 4.546888828277588 3.8616931438446045
H 12.326948165893555 7.257247447967529 1.9064691066741943
