13
Generated by QM7 dataset
C 1.8190504312515259 0.09091472625732422 0.01804688386619091
C 4.611687660217285 0.005574692040681839 -0.09845472872257233
C 6.246111869812012 1.9376684427261353 -0.19331897795200348
N 8.795144081115723 1.4665597677230835 -0.32679033279418945
S 9.316595077514648 -1.6352745294570923 0.015911493450403214
C 6.069516658782959 -2.372626781463623 -0.023470398038625717
N 5.270427227020264 -4.660801410675049 0.0396464541554451
H 1.1210800409317017 2.0386555194854736 0.045069966465234756
H 1.1318892240524292 -0.8506035208702087 1.7266805171966553
H 0.9963580965995789 -0.8544963598251343 -1.6272999048233032
H 5.699092864990234 3.9128291606903076 -0.18014758825302124
H 9.925125122070312 2.73144793510437 0.5818466544151306
H 3.3401286602020264 -4.7038116455078125 0.005574692040681839
