14
Generated by QM7 dataset
C 1.889726161956787 0.0 0.0
C 4.138802528381348 0.0 0.0
C 6.79575777053833 0.0 0.0
C 8.13939094543457 1.9830597639083862 -0.8264339566230774
C 10.896330833435059 2.1635284423828125 -0.8314417004585266
C 12.400042533874512 0.637895941734314 -2.7059178352355957
N 12.058815002441406 3.3492183685302734 -3.0320277214050293
H -0.12298337370157242 0.004648726433515549 -0.0051022605039179325
H 7.755303859710693 -1.6643574237823486 0.719947874546051
H 7.133451461791992 3.634774923324585 -1.5342119932174683
H 11.753775596618652 2.596219062805176 0.9803898930549622
H 11.411432266235352 -0.5544645190238953 -4.044524192810059
H 14.269719123840332 -9.448630589758977e-05 -2.1730339527130127
H 13.649681091308594 4.315737724304199 -2.5225954055786133
