18
Generated by QM7 dataset
C 1.8587157726287842 1.4130994081497192 -2.9670588970184326
C 4.659176349639893 1.2662866115570068 -2.624640703201294
C 5.893054485321045 2.2903292179107666 -0.6509917378425598
C 8.691662788391113 2.263230562210083 -0.09174620360136032
N 10.160811424255371 0.7917007803916931 -1.8980598449707031
C 9.882096290588379 4.84599494934082 0.07400167733430862
C 8.832844734191895 7.107222080230713 -0.3888111412525177
H 1.419222116470337 2.241574287414551 -4.811393737792969
H 0.9479433298110962 2.570575475692749 -1.5127068758010864
H 1.0378376245498657 -0.48437461256980896 -2.894512414932251
H 5.677247524261475 0.269890695810318 -4.100252151489258
H 4.776490688323975 3.253711462020874 0.7876756191253662
H 8.921586036682129 1.3689931631088257 1.7651554346084595
H 9.922479629516602 1.573650598526001 -3.6390833854675293
H 9.425065994262695 -0.982015073299408 -1.9806219339370728
H 11.858541488647461 4.82477331161499 0.654733419418335
H 6.884310245513916 7.315016269683838 -0.9892527461051941
H 9.938674926757812 8.824019432067871 -0.18740414083003998
