19
Generated by QM7 dataset
C 1.4810351133346558 -0.07498433440923691 -0.13006985187530518
C 4.331535816192627 -0.4479406774044037 0.19524650275707245
C 4.8494720458984375 -1.8583755493164062 2.6702396869659424
O 5.214963912963867 -2.0466113090515137 -1.8022129535675049
C 5.822983264923096 2.0708186626434326 0.18160268664360046
C 5.477295398712158 3.6581130027770996 -2.162999391555786
C 7.335047721862793 4.181926250457764 -3.8018455505371094
H 1.0224552154541016 0.7018442749977112 -1.9919224977493286
H 0.710007905960083 1.1800395250320435 1.3222792148590088
H 0.48864537477493286 -1.8898773193359375 -0.015703624114394188
H 4.216338157653809 -0.7734649181365967 4.313677787780762
H 6.871554374694824 -2.253309488296509 2.8829851150512695
H 3.8945555686950684 -3.6962664127349854 2.6888723373413086
H 5.110027313232422 -1.0823783874511719 -3.366074562072754
H 7.841758728027344 1.6517529487609863 0.41778066754341125
H 5.258749008178711 3.221605062484741 1.811718225479126
H 3.6111533641815186 4.454821586608887 -2.493739366531372
H 9.237397193908691 3.4617326259613037 -3.5434632301330566
H 6.987432479858398 5.362986087799072 -5.443828582763672
