15
Generated by QM7 dataset
C 2.748757839202881 1.2418146133422852 -0.825130045413971
O 5.184557914733887 1.6356146335601807 0.2606877088546753
C 7.090536117553711 1.665415644645691 -1.4576780796051025
O 6.866055488586426 1.384016513824463 -3.739560127258301
C 9.568778991699219 2.1025092601776123 -0.21455951035022736
C 11.93157958984375 0.8414761424064636 -1.2069870233535767
C 11.588915824890137 3.639688014984131 -1.5240074396133423
H 1.366990089416504 1.150710940361023 0.7099323272705078
H 2.6877951622009277 -0.5482662320137024 -1.862778663635254
H 2.2478480339050293 2.8231184482574463 -2.063089609146118
H 9.455547332763672 2.3185617923736572 1.8237935304641724
H 11.780401229858398 -0.334179162979126 -2.8800559043884277
H 13.313858032226562 0.18749862909317017 0.15563784539699554
H 12.736092567443848 4.889949798583984 -0.3770570456981659
H 11.207096099853516 4.346067905426025 -3.4112958908081055
