20
Generated by QM7 dataset
C 3.1417641639709473 -1.4382327795028687 -1.1576083898544312
O 5.561955451965332 -0.4613199532032013 -0.5220935344696045
C 5.552393436431885 2.2444844245910645 -0.45495155453681946
C 8.225316047668457 3.1720187664031982 0.20522426068782806
N 8.437911033630371 5.935535430908203 0.5186164379119873
C 10.935277938842773 6.566401481628418 1.5381993055343628
C 8.044015884399414 7.275596618652344 -1.8695439100265503
H 3.2462093830108643 -3.501209020614624 -1.1336467266082764
H 2.5938947200775146 -0.8272086977958679 -3.055063486099243
H 1.727134108543396 -0.8318007588386536 0.2233845293521881
H 4.201503753662109 2.887709379196167 0.9775175452232361
H 4.964216232299805 2.9511287212371826 -2.311683177947998
H 9.565132141113281 2.4732167720794678 -1.216813564300537
H 8.761412620544434 2.23972225189209 1.9800361394882202
H 11.221004486083984 5.662999153137207 3.379718542098999
H 11.100024223327637 8.606417655944824 1.8532354831695557
H 12.467449188232422 5.975124835968018 0.27527639269828796
H 6.112186908721924 7.0173845291137695 -2.5621097087860107
H 9.361608505249023 6.6555585861206055 -3.342226266860962
H 8.284029960632324 9.316292762756348 -1.6051900386810303
