13
Generated by QM7 dataset
O 4.339000225067139 0.9444851279258728 2.8864998817443848
C 3.8582539558410645 1.7251310348510742 0.7562683820724487
C 5.809906482696533 2.503206729888916 -1.1683231592178345
C 8.472020149230957 2.159862518310547 -0.2733677923679352
C 9.999220848083496 -0.1087915301322937 -1.0664103031158447
N 10.522920608520508 2.3913350105285645 -2.113809823989868
H 1.8793514966964722 1.9282199144363403 0.1307501494884491
H 5.4792799949646 4.498965263366699 -1.6027523279190063
H 5.445718288421631 1.4099246263504028 -2.890808582305908
H 8.814835548400879 2.9879026412963867 1.569342017173767
H 9.179326057434082 -1.463744044303894 -2.363215923309326
H 11.375130653381348 -0.8679512143135071 0.24494630098342896
H 12.095929145812988 3.1577324867248535 -1.291344404220581
