14
Generated by QM7 dataset
N 1.888157606124878 0.030235618352890015 0.49979478120803833
C 4.484584808349609 0.064080610871315 -0.015023322775959969
C 5.805219650268555 2.3505735397338867 -0.047091975808143616
C 8.42953872680664 2.38999342918396 -0.3281320333480835
C 9.77033805847168 0.13006985187530518 -0.4949192702770233
C 8.485758781433105 -2.1624324321746826 -0.3438356816768646
C 5.86021089553833 -2.1899092197418213 -0.06258773058652878
H 0.9740782380104065 1.6130702495574951 -0.08278889954090118
H 1.012760877609253 -1.569890022277832 -0.09386269748210907
H 4.796389579772949 4.128711223602295 0.14480970799922943
H 9.427257537841797 4.182417392730713 -0.3860332667827606
H 11.812583923339844 0.15554335713386536 -0.7002379894256592
H 9.5264310836792 -3.931556224822998 -0.41432246565818787
H 4.8953166007995605 -3.993218183517456 0.11661499738693237
