21
Generated by QM7 dataset
C 2.521026849746704 -2.350630283355713 -0.015231193043291569
C 1.4567898511886597 0.3227841258049011 -0.12766990065574646
C 2.3280670642852783 1.939652681350708 2.121727705001831
C 1.5409960746765137 4.7238240242004395 1.8106410503387451
C -1.3059707880020142 5.150845527648926 1.7436503171920776
O 1.2755461931228638 0.8594663143157959 4.369065761566162
C 2.533801555633545 1.6099522113800049 6.619332790374756
H 1.8831498622894287 -3.440284252166748 -1.6547954082489014
H 1.8929575681686401 -3.342963218688965 1.688697099685669
H 4.590163707733154 -2.3257803916931152 -0.028383687138557434
H -0.6085296273231506 0.17313671112060547 -0.14711518585681915
H 2.0477261543273926 1.2040767669677734 -1.9052029848098755
H 4.398696422576904 1.845960021018982 2.2229604721069336
H 2.3823587894439697 5.490145683288574 0.07802679389715195
H 2.3122498989105225 5.83602237701416 3.378263473510742
H -2.1516799926757812 4.31464147567749 0.05548235774040222
H -1.7128099203109741 7.179485321044922 1.7029645442962646
H -2.231785535812378 4.351283550262451 3.4090847969055176
H 1.7331622838974 0.536020815372467 8.19215202331543
H 2.239760160446167 3.618504285812378 6.996786594390869
H 4.556016445159912 1.1893558502197266 6.505741119384766
