22
Generated by QM7 dataset
C 2.126622200012207 1.3982272148132324 -3.985224485397339
C 4.103805065155029 1.8199007511138916 -1.9421281814575195
C 4.266037940979004 4.607908248901367 -1.1924360990524292
N 6.117005825042725 4.912154197692871 0.8410981893539429
C 6.518667221069336 7.559263706207275 1.5735182762145996
C 4.192791938781738 8.710957527160645 2.8443024158477783
C 8.763813018798828 7.65955114364624 3.395667791366577
H 2.0378618240356445 -0.6042777299880981 -4.493504047393799
H 2.581573724746704 2.4757680892944336 -5.692516326904297
H 0.2515036463737488 1.9773149490356445 -3.331984043121338
H 5.942338466644287 1.1591579914093018 -2.633352279663086
H 3.6188066005706787 0.6672056317329407 -0.2900351583957672
H 2.3943963050842285 5.237659454345703 -0.5721901655197144
H 4.815929412841797 5.735545635223389 -2.842374801635742
H 7.794270038604736 4.145907878875732 0.27890467643737793
H 7.0105061531066895 8.682762145996094 -0.09681066870689392
H 3.5494725704193115 7.55419921875 4.437832832336426
H 2.618272304534912 8.911173820495605 1.5170910358428955
H 4.616884231567383 10.604046821594238 3.5705807209014893
H 8.404707908630371 6.549488544464111 5.107665061950684
H 9.151357650756836 9.610297203063965 3.974963426589966
H 10.483501434326172 6.924145698547363 2.5044162273406982
