17
Generated by QM7 dataset
C 1.7873029708862305 1.0092837810516357 0.9576942920684814
C 4.496527671813965 1.0859689712524414 -0.03599928319454193
C 4.673802852630615 -0.2734055817127228 -2.5907766819000244
C 7.350845813751221 -0.6269355416297913 -3.481952667236328
C 8.250808715820312 0.3223116993904114 -5.648504734039307
C 5.4077348709106445 3.7958929538726807 -0.29642245173454285
O 4.125782489776611 5.667779922485352 0.18759311735630035
H 1.6427199840545654 1.9696238040924072 2.7860422134399414
H 1.1491235494613647 -0.9421607851982117 1.2138277292251587
H 0.47929123044013977 1.9478541612625122 -0.34608444571495056
H 5.732295036315918 0.16648487746715546 1.3517400026321411
H 3.571979284286499 0.7583470940589905 -4.013702869415283
H 3.821782112121582 -2.156933307647705 -2.430584669113159
H 8.597536087036133 -1.7542895078659058 -2.2959794998168945
H 7.078025817871094 1.4318077564239502 -6.916605472564697
H 10.195185661315918 -0.009259657934308052 -6.217180252075195
H 7.392797470092773 4.021431922912598 -0.8965427875518799
