14
Generated by QM7 dataset
C 2.878600835800171 -0.6470044255256653 -1.9847415685653687
C 3.46178936958313 0.9096952676773071 0.310481995344162
O 2.355600357055664 0.7063796520233154 2.331411838531494
C 5.540072441101074 2.8582863807678223 0.03949527442455292
C 5.1314377784729 5.348038196563721 1.3473368883132935
N 7.535150527954102 2.23518705368042 -1.255345106124878
O 9.296319007873535 4.208269119262695 -1.296635627746582
H 2.4745774269104004 0.5934118032455444 -3.585944414138794
H 1.2079507112503052 -1.8070695400238037 -1.6183803081512451
H 4.468143939971924 -1.8917481899261475 -2.4190385341644287
H 3.1789729595184326 5.5356125831604 1.992413878440857
H 5.5277323722839355 6.901695728302002 0.044654227793216705
H 6.394625186920166 5.477938175201416 2.9768667221069336
H 10.705544471740723 3.474696159362793 -2.2343742847442627
