15
Generated by QM7 dataset
C 4.579826831817627 -2.0691933631896973 1.349075436592102
C 4.021431922912598 0.340623140335083 0.8138483762741089
N 5.597123146057129 2.4295642375946045 0.39412128925323486
C 4.558605194091797 4.864362716674805 0.24007080495357513
C 2.340898275375366 5.793144226074219 1.0348140001296997
C 8.191641807556152 2.09708571434021 0.0007180959219112992
N 10.039472579956055 3.68557071685791 0.1626865267753601
H 3.0793087482452393 -3.4434778690338135 1.6133915185928345
H 6.500884532928467 -2.7440903186798096 1.5716285705566406
H 2.025597333908081 0.8102767467498779 0.6658638715744019
H 5.8243818283081055 6.171278476715088 -0.7212328910827637
H 0.964440643787384 4.664165496826172 2.0457608699798584
H 1.8746838569641113 7.76548957824707 0.716905415058136
H 8.680721282958984 0.14545221626758575 -0.541028618812561
H 9.383000373840332 5.398059368133545 0.7688917517662048
