16
Generated by QM7 dataset
C 1.3474881649017334 -0.01738548092544079 -0.8051934242248535
C 4.1916961669921875 0.411582350730896 -0.6010273694992065
C 5.6090474128723145 -0.21563665568828583 -3.040966272354126
O 4.508357524871826 1.0027642250061035 -5.182706356048584
C 4.74066162109375 3.108372688293457 0.22400814294815063
N 4.190618991851807 4.949570655822754 -1.4912962913513184
O 5.551108360290527 3.6400094032287598 2.328709602355957
H 0.42133334279060364 0.39153236150741577 1.0005532503128052
H 0.9394962191581726 -1.983380913734436 -1.30228590965271
H 0.472053587436676 1.2024327516555786 -2.22879958152771
H 4.940103054046631 -0.8189505934715271 0.8928388953208923
H 5.602036476135254 -2.256389617919922 -3.387995481491089
H 7.582544803619385 0.3956330716609955 -2.920930862426758
H 3.1604158878326416 -0.09087692946195602 -5.7983598709106445
H 4.061380386352539 4.485699653625488 -3.3518450260162354
H 4.703660488128662 6.734416961669922 -1.0454721450805664
