14
Generated by QM7 dataset
C 1.7392661571502686 0.11599139124155045 0.01795239746570587
C 4.5316009521484375 -0.054518599063158035 -0.016213851049542427
C 6.244543552398682 1.912232756614685 0.00017007534916047007
O 8.652545928955078 1.0264992713928223 -0.05521779879927635
C 8.502955436706543 -1.5268419981002808 -0.11283554881811142
N 10.6922025680542 -2.781412363052368 -0.1762169599533081
C 6.024371147155762 -2.2937307357788086 -0.08173065632581711
H 1.1043559312820435 2.0847647190093994 0.04824470728635788
H 0.9775931239128113 -0.8298543095588684 1.692533254623413
H 0.9405733942985535 -0.7887716889381409 -1.6622976064682007
H 6.061882495880127 3.946636438369751 0.04168735817074776
H 10.760554313659668 -4.634269714355469 0.29812318086624146
H 12.290665626525879 -1.7986035346984863 0.21603348851203918
H 5.363590717315674 -4.2246527671813965 -0.1172386109828949
