18
Generated by QM7 dataset
C 5.2907795906066895 3.631713390350342 1.27622652053833
C 7.8484673500061035 2.9658684730529785 0.161798357963562
O 9.174639701843262 5.263983249664307 -0.3177763521671295
C 11.57030200958252 5.11690616607666 -1.3450125455856323
C 12.77878189086914 2.978586435317993 -1.9919224977493286
C 12.794673919677734 7.67765474319458 -1.7019439935684204
N 11.268739700317383 9.300533294677734 -3.3355367183685303
H 4.197724342346191 1.9244025945663452 1.6816673278808594
H 4.213843822479248 4.818953037261963 -0.03187967836856842
H 5.515997409820557 4.712258815765381 3.025508165359497
H 7.569675922393799 1.9195082187652588 -1.6029980182647705
H 8.901782035827637 1.8042538166046143 1.5151445865631104
H 11.965065956115723 1.1148061752319336 -1.7653632164001465
H 14.667487144470215 3.0430827140808105 -2.793034076690674
H 14.689558982849121 7.505954265594482 -2.51686954498291
H 13.013239860534668 8.59056282043457 0.14560340344905853
H 11.00723934173584 8.38768196105957 -5.010457515716553
H 9.512956619262695 9.404032707214355 -2.541020154953003
