14
Generated by QM7 dataset
C 2.7773115634918213 -0.4916878342628479 -0.0012283220421522856
C 0.8300999999046326 -2.56103253364563 0.006727424915879965
C -1.6691194772720337 -2.119743585586548 0.03735988587141037
C -2.78965163230896 0.49127209186553955 0.06699079275131226
C -0.8427233695983887 2.5605788230895996 0.03650951012969017
C 1.6564961671829224 2.1193089485168457 0.005877048242837191
H 3.9897220134735107 -0.7054725885391235 1.6637904644012451
H 3.9730546474456787 -0.7031670808792114 -1.6784735918045044
H 1.5218720436096191 -4.4937310218811035 -0.01345484983175993
H -2.98113751411438 -3.6986474990844727 0.04174404963850975
H -4.025078773498535 0.7090819478034973 -1.5804346799850464
H -3.9620375633239746 0.6985750794410706 1.7612625360488892
H -1.5346088409423828 4.493409633636475 0.040515728294849396
H 2.968287229537964 3.698345184326172 -0.014683172106742859
