19
Generated by QM7 dataset
C 3.6172571182250977 -1.0022729635238647 -2.4497087001800537
O 4.125782489776611 0.11534888297319412 -0.06602703034877777
C 5.791103363037109 2.2729625701904297 -0.09879488497972488
C 4.639882564544678 4.798978328704834 -1.019620656967163
C 6.070348262786865 6.15015172958374 1.1398450136184692
C 8.587028503417969 7.340320110321045 0.4248671233654022
C 6.219636917114258 3.562492847442627 2.4886748790740967
H 2.36081600189209 -2.6168928146362305 -2.1669678688049316
H 5.374664783477783 -1.664508581161499 -3.314957618713379
H 2.6865103244781494 0.35980385541915894 -3.695416212081909
H 7.583886623382568 1.810792326927185 -1.03793203830719
H 2.5779833793640137 4.894768714904785 -0.8381502032279968
H 5.1587443351745605 5.360264778137207 -2.940300464630127
H 4.898736953735352 7.527988433837891 2.153040647506714
H 9.809965133666992 6.01688814163208 -0.5929960608482361
H 9.596747398376465 7.968559265136719 2.1181373596191406
H 8.288376808166504 8.991978645324707 -0.7843497395515442
H 8.017484664916992 3.1244921684265137 3.409651756286621
H 4.688089370727539 3.24299693107605 3.84678316116333
