14
Generated by QM7 dataset
C 2.7516491413116455 -1.2291345596313477 0.7837828397750854
C 4.543865203857422 -0.234344944357872 -0.6994821429252625
C 5.950294017791748 2.1603915691375732 -0.10259322822093964
C 8.789758682250977 1.6988071203231812 0.07441741228103638
C 10.234662055969238 4.103275775909424 0.5799380540847778
O 9.267632484436035 6.1877570152282715 0.8742818236351013
H 1.7743772268295288 -2.95024037361145 0.2429431974887848
H 2.2013418674468994 -0.34706708788871765 2.5525476932525635
H 5.002048492431641 -1.1737467050552368 -2.47098708152771
H 5.264323711395264 2.9919466972351074 1.6683635711669922
H 5.551297187805176 3.5423295497894287 -1.594645380973816
H 9.515110969543457 0.9020418524742126 -1.693270206451416
H 9.224849700927734 0.37407130002975464 1.605114459991455
H 12.305896759033203 3.8790974617004395 0.6824935078620911
