10
Generated by QM7 dataset
O 1.7558579444885254 -0.00026456164778210223 0.013228083029389381
C 4.052026271820068 0.00039684248622506857 0.0035148905590176582
C 5.675187587738037 2.255709409713745 -0.0029290756210684776
C 8.03689193725586 1.357579231262207 -0.01307690516114235
C 8.035890579223633 -1.3561431169509888 -0.013568233698606491
C 5.677530765533447 -2.2534983158111572 -0.003779452294111252
H 5.002898693084717 4.1701154708862305 0.0002834589104168117
H 9.735188484191895 2.4904510974884033 -0.020031096413731575
H 9.734489440917969 -2.4894118309020996 -0.020957062020897865
H 5.0046563148498535 -4.168244361877441 -0.0012850137427449226
