17
Generated by QM7 dataset
C 0.6229671239852905 6.2017974853515625 -1.3447290658950806
C 2.7875728607177734 4.895902633666992 -0.09798230230808258
C 5.129680633544922 5.835700988769531 0.015665829181671143
O 7.056180477142334 4.549950122833252 1.179850459098816
C 9.397740364074707 5.941261291503906 1.1423205137252808
C 11.737826347351074 4.354099273681641 1.4436941146850586
C 11.111760139465332 5.485137939453125 -1.0800918340682983
H -0.8807635307312012 6.546105861663818 0.03214424103498459
H -0.1391972303390503 5.015748977661133 -2.8576061725616455
H 1.1748427152633667 8.018542289733887 -2.165682792663574
H 2.4064905643463135 3.068934202194214 0.7606147527694702
H 5.654740810394287 7.636213302612305 -0.7987683415412903
H 9.437896728515625 7.786238670349121 2.042586088180542
H 11.501874923706055 2.333282709121704 1.678322434425354
H 13.302084922790527 5.149862766265869 2.496800661087036
H 12.249564170837402 7.051305294036865 -1.7442928552627563
H 10.457781791687012 4.227034091949463 -2.5579144954681396
