20
Generated by QM7 dataset
C 2.3682425022125244 2.075939655303955 -2.5021486282348633
N 4.931089401245117 3.0567643642425537 -2.217725992202759
C 6.23350715637207 1.7822574377059937 -0.10650496184825897
C 9.048254013061523 2.5745818614959717 0.08225978165864944
C 10.195526123046875 1.5637861490249634 2.5347464084625244
C 10.588967323303223 1.6447231769561768 -2.185959577560425
O 9.204383850097656 5.278496265411377 0.1694706380367279
H 1.4240598678588867 3.064058542251587 -4.053954124450684
H 1.2502806186676025 2.369603157043457 -0.7864662408828735
H 2.3860816955566406 0.060414545238018036 -2.9647157192230225
H 4.8033061027526855 4.932979106903076 -1.7820305824279785
H 6.118706226348877 -0.27607008814811707 -0.3272438645362854
H 5.258125305175781 2.291689872741699 1.6517529487609863
H 9.176793098449707 2.2960739135742188 4.183060169219971
H 12.160595893859863 2.1869044303894043 2.742748498916626
H 10.152043342590332 -0.5045002102851868 2.6025497913360596
H 9.884986877441406 2.4466094970703125 -3.9600534439086914
H 10.547808647155762 -0.4180641174316406 -2.3380258083343506
H 12.563636779785156 2.2497944831848145 -2.0250871181488037
H 8.672595977783203 5.86176061630249 -1.4934883117675781
