12
Generated by QM7 dataset
N 1.7465416193008423 0.18029877543449402 -0.0666506439447403
C 4.281930446624756 0.033183589577674866 -0.025095563381910324
C 5.969606876373291 2.0139000415802 -0.0021731851156800985
C 8.529959678649902 1.1752207279205322 0.025114459916949272
C 8.710881233215332 -1.415650486946106 0.02723095379769802
O 10.798405647277832 -2.8073582649230957 0.04675182327628136
S 5.810586452484131 -2.813594341278076 -0.0002267671370645985
H 0.8055713772773743 1.8453176021575928 0.03745437040925026
H 0.6638796925544739 -1.397528052330017 0.029479727149009705
H 5.405032634735107 3.979933261871338 -0.011886377818882465
H 10.162342071533203 2.4072842597961426 0.03945748135447502
H 10.19968318939209 -4.54620885848999 0.03609376773238182
