11
Generated by QM7 dataset
N 1.8730210065841675 0.1408412903547287 -0.3432687520980835
C 4.43199348449707 -0.09202966094017029 -0.18959622085094452
C 5.9659600257873535 -2.0810797214508057 -0.08775888383388519
C 8.582663536071777 -1.1504274606704712 0.07940629124641418
O 10.417228698730469 -2.5355777740478516 0.21040210127830505
N 8.546796798706055 1.4411240816116333 0.07804568856954575
C 6.192122459411621 2.0481040477752686 -0.08630379289388657
H 0.9015883207321167 -1.4425601959228516 0.1543528288602829
H 1.1594414710998535 1.7374142408370972 0.45670899748802185
H 5.505490303039551 -4.057241916656494 -0.11750317364931107
H 5.4626312255859375 3.9926700592041016 -0.1459435522556305
