20
Generated by QM7 dataset
C 1.8311067819595337 -0.21306662261486053 0.019331898540258408
C 4.722595691680908 -0.014267432503402233 -0.024831000715494156
C 5.7176690101623535 -1.5341930389404297 -2.28326153755188
C 5.638508319854736 2.775686502456665 -0.07963305711746216
C 4.644039630889893 4.295630931854248 2.1790809631347656
C 8.529769897460938 2.9741833209991455 -0.12430618703365326
H 1.0455665588378906 0.5573369264602661 1.7698986530303955
H 1.2239378690719604 -2.189814567565918 -0.08825021237134933
H 0.9866071343421936 0.8009226322174072 -1.575748085975647
H 5.438102722167969 -0.9167061448097229 1.7006022930145264
H 5.206271171569824 -0.6337952613830566 -4.0759501457214355
H 4.934736251831055 -3.451925039291382 -2.2869088649749756
H 7.775164604187012 -1.7309890985488892 -2.2169699668884277
H 4.922906875610352 3.6780874729156494 -1.8050097227096558
H 5.155569553375244 3.394817352294922 3.9713351726531982
H 2.5865249633789062 4.4918599128723145 2.113016128540039
H 5.426405429840088 6.212890625 2.1827847957611084
H 9.375101089477539 1.960250735282898 1.4706038236618042
H 9.137260437011719 4.951611518859863 -0.016629589721560478
H 9.315556526184082 2.204271078109741 -1.8754775524139404
