17
Generated by QM7 dataset
C 1.7898352146148682 -0.004195191897451878 0.09488315135240555
C 4.65140962600708 0.01668628118932247 0.02479320764541626
C 5.994192600250244 1.9762945175170898 1.7362614870071411
C 8.018750190734863 -0.05799569562077522 2.330183506011963
C 6.017965316772461 -2.0606329441070557 1.5705136060714722
C 10.269659996032715 0.018160268664360046 0.7622210383415222
C 12.130454063415527 0.079255111515522 -0.5359452366828918
H 1.0497428178787231 -1.6273376941680908 -0.9524597525596619
H 1.0292770862579346 1.7124320268630981 -0.7733893394470215
H 1.072589635848999 -0.11243870854377747 2.0325138568878174
H 5.331521987915039 0.10263102501630783 -1.9365535974502563
H 4.900362014770508 2.5454611778259277 3.4029998779296875
H 6.647754192352295 3.687403678894043 0.7763750553131104
H 8.505524635314941 -0.1373641937971115 4.343611240386963
H 6.691104412078857 -3.6800904273986816 0.4747369885444641
H 4.9323930740356445 -2.7767257690429688 3.1854357719421387
H 13.77850341796875 0.13298003375530243 -1.6911725997924805
