17
Generated by QM7 dataset
C 2.1797802448272705 0.6179971098899841 -1.261448860168457
C 4.7087249755859375 -0.22483961284160614 -0.25439491868019104
C 5.152281761169434 -3.039473295211792 -0.037662241607904434
N 6.338481426239014 1.51030695438385 0.36067312955856323
N 8.554147720336914 0.6261040568351746 1.2460098266601562
C 10.502644538879395 2.4264838695526123 0.4645513892173767
C 9.467792510986328 2.4682657718658447 3.095560312271118
H 2.069155693054199 2.679574966430664 -1.333749771118164
H 0.6831548810005188 -0.09671618044376373 -0.029782084748148918
H 1.916900396347046 -0.14055782556533813 -3.1648943424224854
H 3.4862234592437744 -4.078463554382324 -0.6820021867752075
H 5.5175089836120605 -3.5425562858581543 1.9331520795822144
H 6.762196063995361 -3.5891189575195312 -1.2109365463256836
H 9.977337837219238 3.925546884536743 -0.8261504769325256
H 12.362550735473633 1.6308903694152832 0.16894151270389557
H 10.619599342346191 1.7013959884643555 4.600406169891357
H 8.220402717590332 3.9964683055877686 3.6407275199890137
