20
Generated by QM7 dataset
C 6.093289852142334 0.7180959582328796 -5.583460330963135
C 7.575042724609375 0.7502212524414062 -3.130652666091919
O 8.988085746765137 3.041457414627075 -3.0257160663604736
C 10.177422523498535 3.4750173091888428 -0.6203593015670776
C 12.42334270477295 1.7028889656066895 -0.2495383322238922
C 11.086569786071777 6.246716499328613 -0.5790876746177673
N 8.95308780670166 8.007563591003418 -0.7830836176872253
H 5.014955043792725 -1.0346062183380127 -5.769806385040283
H 7.362939834594727 0.8991506099700928 -7.207188606262207
H 4.783728122711182 2.3179192543029785 -5.6612982749938965
H 8.857165336608887 -0.871806263923645 -3.0854504108428955
H 6.270961761474609 0.6367243528366089 -1.5266340970993042
H 8.796297073364258 3.1936371326446533 0.9014182686805725
H 13.698813438415527 1.7762669324874878 -1.8774807453155518
H 11.799015045166016 -0.2591759264469147 -0.06290898472070694
H 13.487788200378418 2.187112331390381 1.4557316303253174
H 12.35557746887207 6.585336685180664 -2.1815755367279053
H 12.121156692504883 6.650513172149658 1.1666035652160645
H 7.885146617889404 7.430535316467285 -2.2888741493225098
H 9.620161056518555 9.75444507598877 -1.2400572299957275
