15
Generated by QM7 dataset
C -3.149663209915161 1.8082033395767212 0.7899811267852783
C -2.6260011196136475 -0.7701578736305237 -0.26699939370155334
C -0.7833103537559509 -2.5787391662597656 0.7310027480125427
C 1.5080770254135132 -1.351305365562439 -0.3400184214115143
O 3.22536563873291 -0.40349432826042175 1.3578437566757202
C 1.8229999542236328 1.5990862846374512 0.03095371462404728
C -0.9517228007316589 1.415877342224121 -1.0150285959243774
H -4.793271541595459 2.812347173690796 0.08849587291479111
H -2.7632899284362793 2.1275482177734375 2.7757620811462402
H -3.8809871673583984 -1.549669861793518 -1.6767350435256958
H -0.7764884829521179 -2.6389269828796387 2.799156904220581
H -1.0515570640563965 -4.48630428314209 -0.016138261184096336
H 2.1729960441589355 -2.199357748031616 -2.0827994346618652
H 1.7459936141967773 3.0223145484924316 1.500045657157898
H -1.211257815361023 2.192138910293579 -2.905113697052002
