17
Generated by QM7 dataset
C -0.6718354225158691 -2.131157636642456 1.0294849872589111
N 1.6794941425323486 -2.6055355072021484 2.355278968811035
C 4.032694339752197 -2.6309711933135986 0.9079000353813171
C 4.505352973937988 -5.138751029968262 -0.4898737072944641
N 4.688958644866943 -7.301107883453369 1.2270559072494507
C 1.6472176313400269 -3.381967306137085 4.84663724899292
O -0.24413372576236725 -3.679523468017578 6.146012783050537
H -2.2728493213653564 -2.045288324356079 2.3337929248809814
H -0.9998729825019836 -3.650724172592163 -0.33179810643196106
H -0.5255895256996155 -0.32590216398239136 0.032427702099084854
H 5.608234882354736 -2.267784833908081 2.2043087482452393
H 3.976494073867798 -1.0651063919067383 -0.44557851552963257
H 6.2717742919921875 -4.988631248474121 -1.5571343898773193
H 2.9859561920166016 -5.492829322814941 -1.8502119779586792
H 2.988696336746216 -7.542993068695068 2.1098792552948
H 4.973910331726074 -8.908187866210938 0.20195503532886505
H 3.555670976638794 -3.7242534160614014 5.612354278564453
