12
Generated by QM7 dataset
C 1.889726161956787 0.0 0.0
C 4.618490695953369 0.0 0.0
C 6.86756706237793 0.0 0.0
C 9.452712059020996 0.0 0.0
C 11.701788902282715 0.0 0.0
C 14.430553436279297 0.0 0.0
H 1.145230770111084 1.9285600185394287 0.022072000429034233
H 1.145249605178833 -0.983356773853302 1.6591039896011353
H 1.145230770111084 -0.9451653957366943 -1.6812137365341187
H 15.175048828125 1.9285600185394287 -0.022072000429034233
H 15.175029754638672 -0.983356773853302 -1.6591039896011353
H 15.175048828125 -0.9451653957366943 1.6812137365341187
