18
Generated by QM7 dataset
C 1.6887726783752441 0.06857816129922867 0.6227403283119202
N 4.349147796630859 0.34718048572540283 -0.04325583204627037
C 5.6461615562438965 2.0431530475616455 1.7591649293899536
C 7.710574150085449 0.016213851049542427 2.1437809467315674
C 5.833206653594971 -1.8304643630981445 0.8863949179649353
C 10.224684715270996 0.4117335379123688 0.9191439151763916
C 10.4954252243042 0.9892527461051941 -1.5282214879989624
H 0.8280779719352722 -1.4250802993774414 -0.5228305459022522
H 0.6711362600326538 1.8225841522216797 0.20796436071395874
H 1.3765710592269897 -0.3956141769886017 2.6184234619140625
H 4.606226444244385 2.4830245971679688 3.500056266784668
H 6.265292644500732 3.8362574577331543 0.9314271211624146
H 8.005087852478027 -0.4217868745326996 4.151690483093262
H 6.59678840637207 -3.0316309928894043 -0.6165042519569397
H 4.873849391937256 -3.0664587020874023 2.2494165897369385
H 11.88741683959961 0.21123358607292175 2.1067988872528076
H 8.886588096618652 1.2076106071472168 -2.785078287124634
H 12.359621047973633 1.2599937915802002 -2.340463638305664
