14
Generated by QM7 dataset
N -0.39580315351486206 2.3447344303131104 1.7134902477264404
C 1.5913006067276 2.9964253902435303 0.20545102655887604
O 1.5486305952072144 4.952462196350098 -1.0440359115600586
C 3.8416621685028076 1.1890535354614258 0.227787584066391
O 3.2505178451538086 -1.0901830196380615 1.5455125570297241
C 5.099917411804199 -2.885895252227783 1.6752421855926514
C 7.443366527557373 -2.8322269916534424 0.7312862277030945
H -0.41940581798553467 0.6452280879020691 2.5950098037719727
H -1.9602129459381104 3.4384889602661133 1.705175518989563
H 5.408245086669922 2.168271780014038 1.1646571159362793
H 4.306950569152832 0.7650745511054993 -1.7448596954345703
H 4.398980140686035 -4.507129192352295 2.7187111377716064
H 8.200296401977539 -1.2460854053497314 -0.3186078369617462
H 8.691020965576172 -4.439061164855957 1.0030666589736938
