19
Generated by QM7 dataset
C 3.476264715194702 -1.1790189743041992 -2.238229513168335
O 3.1902544498443604 0.8952010869979858 -0.5537275671958923
C 5.532796859741211 2.1195356845855713 0.14367587864398956
C 7.112627029418945 0.6730637550354004 1.995116114616394
C 6.743468761444092 3.810122489929199 -1.8084300756454468
C 5.293349742889404 4.969960689544678 0.34544193744659424
C 6.625927925109863 6.480097770690918 2.3134782314300537
H 4.614352226257324 -0.6536373496055603 -3.881535291671753
H 1.599388599395752 -1.742648720741272 -2.892981767654419
H 4.335334300994873 -2.783982276916504 -1.2613732814788818
H 8.884774208068848 1.6385626792907715 2.4451355934143066
H 7.614519119262695 -1.1839700937271118 1.2373926639556885
H 6.066814422607422 0.3906064033508301 3.757059097290039
H 5.897854328155518 3.911468505859375 -3.6716055870056152
H 8.784977912902832 3.9708058834075928 -1.8205432891845703
H 3.4468982219696045 5.765271186828613 -0.0624176524579525
H 8.620476722717285 5.968019485473633 2.499786376953125
H 5.7112627029418945 6.223416328430176 4.150405406951904
H 6.541362762451172 8.490633964538574 1.8330910205841064
