16
Generated by QM7 dataset
C 5.830050945281982 -2.19321608543396 -0.9214682579040527
C 4.640751838684082 0.1130056232213974 0.31080326437950134
C 6.420665740966797 2.3164451122283936 0.3190046548843384
C 6.607389450073242 4.02906608581543 -1.9444336891174316
C 5.387779235839844 4.980391979217529 0.45587754249572754
C 6.689536094665527 6.825331687927246 1.9624239206314087
N 7.740450382232666 8.315342903137207 3.179067373275757
H 4.5134406089782715 -3.7875592708587646 -0.8895696997642517
H 7.555446147918701 -2.7581686973571777 0.07139385491609573
H 6.331791877746582 -1.8055766820907593 -2.89109206199646
H 4.129354000091553 -0.3424750566482544 2.265214681625366
H 2.884402275085449 0.5848324298858643 -0.6820399761199951
H 8.148101806640625 1.9003463983535767 1.346392035484314
H 5.391313076019287 3.671114206314087 -3.5546882152557373
H 8.464631080627441 4.732327938079834 -2.4569084644317627
H 3.349388360977173 5.203965663909912 0.41719484329223633
