15
Generated by QM7 dataset
C 1.7469195127487183 -0.07778112590312958 0.04401172325015068
C 4.613860607147217 -0.02900729700922966 0.014550890773534775
C 5.640359878540039 2.6604321002960205 3.779452163144015e-05
O 8.333163261413574 2.539905309677124 -0.030424591153860092
C 9.435062408447266 4.988744735717773 -0.026286089792847633
H 1.062177300453186 -2.029773712158203 0.057466570287942886
H 0.9709413051605225 0.862319827079773 -1.6286982297897339
H 1.0049941539764404 0.8736581802368164 1.7254900932312012
H 5.317859649658203 -1.0494027137756348 -1.6450822353363037
H 5.35147762298584 -1.0435445308685303 1.6629401445388794
H 5.011912822723389 3.677199125289917 1.6929678916931152
H 4.9751763343811035 3.6737220287323 -1.680987000465393
H 11.490650177001953 4.777586936950684 -0.06266331672668457
H 8.907621383666992 6.01626443862915 1.6887537240982056
H 8.850494384765625 6.049787998199463 -1.7015093564987183
