15
Generated by QM7 dataset
C 4.263694763183594 -1.830256462097168 -1.5088329315185547
C 3.8542098999023438 0.46258607506752014 -0.5174258947372437
C 5.7729811668396 2.4034104347229004 -0.08585026115179062
C 6.602211952209473 4.02999210357666 -2.2410829067230225
N 4.948266983032227 5.055867671966553 -0.261424720287323
C 6.019155502319336 6.720943450927734 1.4089797735214233
N 4.896620750427246 8.650221824645996 2.3830392360687256
H 2.718881368637085 -3.1580724716186523 -1.7528910636901855
H 6.136110782623291 -2.429753065109253 -2.0941755771636963
H 1.9322638511657715 0.9410080313682556 0.04055352136492729
H 7.105124473571777 2.010876417160034 1.4229449033737183
H 5.658425807952881 3.876999855041504 -4.048360347747803
H 8.510022163391113 4.763753890991211 -2.268483877182007
H 8.003897666931152 6.323136806488037 1.9149539470672607
H 3.0918753147125244 8.676677703857422 1.6703855991363525
