17
Generated by QM7 dataset
C -2.2926535606384277 -0.0029290756210684776 1.8971905708312988
C -1.1682665348052979 -1.911798119544983 0.00247554131783545
C 1.6495041847229004 -2.405545711517334 0.41290515661239624
C 3.151571750640869 -0.0005669178208336234 -0.19252529740333557
C 1.650694727897644 2.4026923179626465 0.42044517397880554
C -1.1664146184921265 1.9115713834762573 0.007653390988707542
O -1.5296765565872192 0.004006219562143087 -1.9955129623413086
H -1.5083415508270264 -0.0058014593087136745 3.806305170059204
H -4.359371662139893 -0.0020786987151950598 1.9895414113998413
H -2.3208861351013184 -3.599701404571533 -0.3021294176578522
H 1.9863477945327759 -2.991398572921753 2.369924545288086
H 2.3000423908233643 -3.9461827278137207 -0.8069508671760559
H 3.55527400970459 0.002456644084304571 -2.229480028152466
H 4.988725662231445 -0.002853486454114318 0.7598399519920349
H 2.302215576171875 3.9472978115081787 -0.7946298122406006
H 1.9882186651229858 2.982743740081787 2.3795998096466064
H -2.3187694549560547 3.6020636558532715 -0.29063987731933594
