18
Generated by QM7 dataset
C 1.9133477210998535 0.06449635326862335 0.033278077840805054
C 4.71959114074707 -0.001908623380586505 -0.03667958453297615
C 6.202553749084473 -2.052356004714966 -0.14371366798877716
C 8.944470405578613 -1.3939753770828247 -0.11026552319526672
N 10.022087097167969 -2.054340124130249 2.3316574096679688
C 8.899872779846191 1.4630826711654663 -0.6065831780433655
C 6.250061511993408 2.3724756240844727 0.10608922690153122
H 1.1053385734558105 -1.8377586603164673 -0.05610596761107445
H 1.178943395614624 1.1437945365905762 -1.5708348751068115
H 1.2567434310913086 0.9557101130485535 1.7801976203918457
H 5.531738758087158 -3.9824466705322266 -0.19278986752033234
H 9.96728515625 -2.376085042953491 -1.6164528131484985
H 9.043020248413086 -1.1386922597885132 3.715050458908081
H 11.82169246673584 -1.3817110061645508 2.4300177097320557
H 9.224037170410156 1.8095072507858276 -2.6279098987579346
H 10.37429428100586 2.501222610473633 0.41103434562683105
H 5.5867109298706055 3.815338134765625 -1.218514323234558
H 6.207202434539795 3.145128011703491 2.0257108211517334
