17
Generated by QM7 dataset
C 1.835169792175293 0.07383160293102264 0.6908649802207947
C 4.663881778717041 -0.02209089882671833 0.10134601593017578
C 5.413970947265625 2.269334316253662 -1.50531804561615
O 7.925908088684082 2.1687440872192383 -2.4981045722961426
C 8.53670597076416 -0.09227532893419266 -3.576571226119995
C 7.408482551574707 -2.2963762283325195 -3.0798568725585938
C 5.341707706451416 -2.5375430583953857 -1.1799827814102173
H 1.3330506086349487 1.833469033241272 1.6552678346633911
H 1.2747526168823242 -1.5099667310714722 1.8971338272094727
H 0.716735303401947 -0.02985767275094986 -1.0509145259857178
H 5.716667175292969 0.08322353661060333 1.8867403268814087
H 5.3013434410095215 3.981804132461548 -0.3432120680809021
H 4.106053829193115 2.537694215774536 -3.0911574363708496
H 10.119993209838867 0.10300897061824799 -4.856123924255371
H 8.034926414489746 -3.9967329502105713 -4.039913177490234
H 3.6924304962158203 -3.3739359378814697 -2.103605270385742
H 5.940751075744629 -3.885806083679199 0.28281641006469727
