18
Generated by QM7 dataset
C 1.8992692232131958 -0.1230778619647026 1.618096947669983
C 4.4865312576293945 -0.09484535455703735 0.3801562190055847
C 5.72086238861084 2.493323564529419 0.47711804509162903
O 4.538933277130127 4.416176795959473 1.0565458536148071
C 8.495528221130371 2.5923452377319336 -0.33274298906326294
N 9.773738861083984 4.839437484741211 0.6951924562454224
C 10.322875022888184 4.557924747467041 3.38236403465271
H 1.1037511825561523 -2.0314555168151855 1.5815306901931763
H 0.5896701216697693 1.1419426202774048 0.6354393362998962
H 2.0147314071655273 0.4930862486362457 3.590574026107788
H 4.332990646362305 -0.6653347611427307 -1.6022799015045166
H 5.717309951782227 -1.4369666576385498 1.3629271984100342
H 8.529694557189941 2.6827309131622314 -2.3996310234069824
H 9.473556518554688 0.864020586013794 0.2478564828634262
H 8.563142776489258 6.337876796722412 0.48273053765296936
H 11.580638885498047 2.9502782821655273 3.720681667327881
H 8.604735374450684 4.316059112548828 4.508735179901123
H 11.288959503173828 6.2543511390686035 4.064990043640137
