15
Generated by QM7 dataset
C 5.071080207824707 -1.4502514600753784 2.3607404232025146
O 4.481485366821289 -0.16491639614105225 0.07619375735521317
C 5.369203090667725 2.372664451599121 0.10431288182735443
O 8.046982765197754 2.5445539951324463 0.03463868051767349
C 9.032154083251953 1.6211960315704346 -2.293881893157959
C 11.76025676727295 2.118609666824341 -2.383681535720825
C 13.99230670928955 2.5221986770629883 -2.4723098278045654
H 4.2753729820251465 -3.3542072772979736 2.2535362243652344
H 4.231739521026611 -0.48025500774383545 3.9827489852905273
H 7.117747783660889 -1.6112371683120728 2.604628324508667
H 4.690375804901123 3.339240550994873 1.8053876161575317
H 4.557036876678467 3.368040084838867 -1.5200201272964478
H 8.104808807373047 2.570556640625 -3.8836140632629395
H 8.688091278076172 -0.41451144218444824 -2.440014362335205
H 15.971833229064941 2.8817567825317383 -2.5465760231018066
