10
Generated by QM7 dataset
O 1.7345229387283325 0.12186843901872635 0.0
N 4.372769355773926 -0.1037270650267601 0.0
C 5.349776744842529 2.121614456176758 0.0
C 8.055146217346191 2.0682485103607178 0.0
C 10.323535919189453 2.0538110733032227 -0.0
C 13.218615531921387 2.0506930351257324 -0.0
C 15.486021995544434 2.054718017578125 0.0
H 1.1887511014938354 -1.6402634382247925 0.0
H 4.315302848815918 3.926227331161499 -0.0
H 17.498504638671875 2.057401418685913 0.0
