16
Generated by QM7 dataset
C 1.8260234594345093 -0.0032503290567547083 -0.0826566219329834
C 4.71724796295166 0.02596483752131462 -0.07483315467834473
N 5.6397175788879395 0.32176366448402405 -2.6603753566741943
C 5.8179755210876465 -2.3363819122314453 1.2584631443023682
O 6.716389179229736 -1.590336799621582 3.7359507083892822
C 6.743223190307617 1.0089058876037598 3.628708839416504
C 5.708106994628906 2.0540378093719482 1.5942485332489014
H 1.062744140625 -0.22141921520233154 1.8321083784103394
H 1.0985167026519775 -1.5738205909729004 -1.2222181558609009
H 1.049119234085083 1.7549697160720825 -0.8586726784706116
H 7.562381744384766 0.45602869987487793 -2.6404576301574707
H 4.982546329498291 1.972987413406372 -3.3980865478515625
H 7.447335243225098 -3.118123769760132 0.2378598302602768
H 4.430330753326416 -3.8581783771514893 1.478446125984192
H 7.552933216094971 1.9247616529464722 5.255630970001221
H 5.528110504150391 4.0600385665893555 1.270935297012329
