13
Generated by QM7 dataset
C 1.889726161956787 0.0 0.0
C 4.138802528381348 0.0 0.0
C 6.86756706237793 0.0 0.0
C 8.000628471374512 -2.3318841457366943 1.3061976432800293
O 8.914556503295898 -1.593908429145813 3.783250570297241
C 8.909832000732422 1.005561113357544 3.6860997676849365
C 7.838772773742676 2.0389766693115234 1.6661715507507324
H -0.12432508170604706 0.004856596235185862 0.012075349688529968
H 7.602084636688232 0.17100131511688232 -1.926556944847107
H 9.63507080078125 -3.0373001098632812 0.24471953511238098
H 6.661397933959961 -3.893667221069336 1.5296199321746826
H 9.724776268005371 1.9281442165374756 5.307522773742676
H 7.637479305267334 4.039402961730957 1.321220874786377
