10
Generated by QM7 dataset
O 4.9899163246154785 -2.2213351726531982 0.1670140027999878
C 4.050628185272217 -0.10661834478378296 -0.010506877675652504
C 5.390783786773682 2.2578446865081787 0.030122235417366028
C 4.4925217628479 4.700126647949219 -0.15626145899295807
C 6.537205219268799 6.447726726531982 -0.020768091082572937
N 8.842142105102539 5.483664035797119 0.2479131668806076
S 8.598877906799316 2.3542585372924805 0.34723716974258423
H 1.9830408096313477 0.0724710002541542 -0.2244238704442978
H 2.5264127254486084 5.216361999511719 -0.37335318326950073
H 6.384042739868164 8.486363410949707 -0.11665279418230057
