18
Generated by QM7 dataset
C 1.31804621219635 1.2577450275421143 0.8206324577331543
C 4.110022068023682 1.2188166379928589 1.2262622117996216
C 5.774039268493652 2.443000078201294 -0.2506154775619507
C 8.579526901245117 2.3906357288360596 0.1222274899482727
O 9.684657096862793 1.490445852279663 -2.1700291633605957
C 9.665740966796875 5.037802219390869 0.7062662243843079
N 12.449289321899414 4.960493087768555 0.769496500492096
H 0.3700650632381439 1.9634443521499634 2.5185892581939697
H 0.6326425075531006 -0.6591553688049316 0.4450305104255676
H 0.7715751528739929 2.4633147716522217 -0.7687216997146606
H 4.780648231506348 0.09631934016942978 2.811213254928589
H 5.100767612457275 3.5274951457977295 -1.8613046407699585
H 9.111578941345215 1.0690369606018066 1.6268274784088135
H 11.410392761230469 2.1528704166412354 -2.130099296569824
H 8.937762260437012 5.751324653625488 2.507307529449463
H 9.119553565979004 6.369416236877441 -0.7842174768447876
H 13.014298439025879 3.907707929611206 2.285113573074341
H 13.106649398803711 6.74348783493042 1.1021071672439575
