13
Generated by QM7 dataset
C 1.768367886543274 0.019294103607535362 -0.017253199592232704
C 4.585647106170654 0.03913622722029686 -0.0031180481892079115
C 6.044175624847412 2.210658311843872 0.007369931787252426
S 9.22195816040039 1.6033759117126465 0.022620022296905518
C 8.707744598388672 -1.5849699974060059 0.015042220242321491
C 6.17577600479126 -2.1426281929016113 0.0010960411746054888
O 5.397964954376221 -4.563443183898926 -0.007199856452643871
H 0.9970384240150452 1.938481092453003 -0.0016251645283773541
H 1.0482689142227173 -0.9727932214736938 1.6484837532043457
H 1.0654464960098267 -0.9392505884170532 -1.7097108364105225
H 5.398116111755371 4.149555206298828 0.0069541921839118
H 10.275744438171387 -2.8916022777557373 0.020957062020897865
H 3.5652518272399902 -4.6512017250061035 -0.017763426527380943
