16
Generated by QM7 dataset
O 1.9823416471481323 0.2698529064655304 0.3937055468559265
C 4.636669635772705 -0.03187967836856842 0.09543117135763168
C 5.2298359870910645 -2.6990768909454346 -0.7918708324432373
C 5.205231666564941 -2.508044481277466 -3.6728718280792236
N 6.123770713806152 0.052742257714271545 -4.304134845733643
C 4.128333568572998 1.953088641166687 -4.425455093383789
C 5.595611572265625 1.5904879570007324 -2.018662214279175
H 1.689849853515625 2.0375595092773438 0.8089539408683777
H 5.556569576263428 0.38495612144470215 1.8998361825942993
H 3.884634494781494 -4.109643936157227 -0.10272551327943802
H 7.134510040283203 -3.2296552658081055 -0.17094463109970093
H 6.459046363830566 -3.931594133377075 -4.501025199890137
H 3.305471181869507 -2.849461317062378 -4.429159164428711
H 4.547909259796143 3.6028196811676025 -5.564279556274414
H 2.1827847957611084 1.3228460550308228 -4.533717632293701
H 7.056520938873291 2.916489839553833 -1.4919954538345337
