17
Generated by QM7 dataset
C 2.686321258544922 -0.8790438771247864 0.06086807698011398
C 5.176980495452881 -0.4453895390033722 0.118013396859169
C 6.244940280914307 2.061596632003784 0.03601818159222603
C 8.74130630493164 2.5127878189086914 0.07899054884910583
C 9.916923522949219 5.021002292633057 0.018065782263875008
C 12.151392936706543 5.438575267791748 -1.6955379247665405
C 9.651266098022461 6.621959209442139 -2.320734977722168
H 1.9624427556991577 -2.796945810317993 0.1257423758506775
H 1.3149847984313965 0.6419210433959961 -0.05213754251599312
H 6.467757701873779 -2.041414499282837 0.22990408539772034
H 4.9443359375 3.6504974365234375 -0.07058127224445343
H 10.038981437683105 0.9209391474723816 0.1998763382434845
H 9.93825912475586 5.991848945617676 1.8264392614364624
H 12.799417495727539 3.900829315185547 -2.884251117706299
H 13.651759147644043 6.663476467132568 -1.0280866622924805
H 9.45543384552002 8.64596939086914 -2.072821617126465
H 8.6156587600708 5.876348972320557 -3.9240353107452393
