11
Generated by QM7 dataset
N 1.7476186752319336 -0.15238751471042633 -0.37728381156921387
C 4.418822288513184 0.05852481722831726 0.2285812795162201
C 5.217495918273926 2.7638566493988037 0.12806673347949982
C 6.236814498901367 4.029576301574707 2.072481632232666
H 1.220385193824768 -1.997780680656433 -0.24744074046611786
H 1.4696210622787476 0.3524339199066162 -2.212132215499878
H 5.531171798706055 -1.0392359495162964 -1.1300562620162964
H 4.7556281089782715 -0.7506747841835022 2.103983163833618
H 4.959038257598877 3.7474024295806885 -1.6562504768371582
H 6.528550148010254 3.1430869102478027 3.8983349800109863
H 6.774781703948975 5.998576641082764 1.8740602731704712
