17
Generated by QM7 dataset
C 1.8269872665405273 0.39858102798461914 0.2208523005247116
C 4.679510116577148 -0.002853486454114318 -0.0261349119246006
C 5.597595691680908 -1.775435447692871 2.066113233566284
O 5.114468097686768 -1.2437043190002441 -2.3887650966644287
C 6.010387420654297 2.5157923698425293 -0.12746202945709229
C 7.452418327331543 3.6879518032073975 2.0351593494415283
O 8.718043327331543 2.369489908218384 0.029536418616771698
H 1.0989701747894287 1.5277680158615112 -1.3561809062957764
H 1.349245548248291 1.3747568130493164 1.9817936420440674
H 0.8133569955825806 -1.4065042734146118 0.1661825180053711
H 5.222617149353027 -1.0070539712905884 3.949300765991211
H 7.629088878631592 -2.142117977142334 1.904995083808899
H 4.665658473968506 -3.6202239990234375 1.924686074256897
H 6.941890239715576 -1.2669479846954346 -2.6256232261657715
H 5.2397003173828125 3.7529962062835693 -1.5664695501327515
H 7.428778171539307 2.8122148513793945 3.8814785480499268
H 7.634172439575195 5.726739406585693 2.078528642654419
