16
Generated by QM7 dataset
N 2.587620973587036 -0.9764403700828552 -1.1196627616882324
C 5.205968856811523 -0.5843033194541931 -0.2522784471511841
C 5.949915885925293 2.26249361038208 -0.2554153800010681
N 3.9779112339019775 3.751786708831787 1.0211890935897827
C 8.465916633605957 2.926297664642334 0.8874343037605286
C 10.187929153442383 1.359827995300293 1.8839813470840454
H 2.232957124710083 -2.8693790435791016 -1.1872392892837524
H 2.43275785446167 -0.34105777740478516 -2.9341399669647217
H 6.493684768676758 -1.6526600122451782 -1.472417950630188
H 5.353121757507324 -1.3630216121673584 1.662203073501587
H 5.992264747619629 2.8920936584472656 -2.2317099571228027
H 3.981842041015625 3.2505369186401367 2.882796049118042
H 2.2947700023651123 3.0299112796783447 0.3822537958621979
H 8.910588264465332 4.937797546386719 0.8591828942298889
H 9.920533180236816 -0.6686040163040161 1.9862722158432007
H 11.945185661315918 2.104228973388672 2.6426875591278076
