12
Generated by QM7 dataset
O 2.014655828475952 0.030046645551919937 0.8725999593734741
C 4.256532669067383 -0.05446190759539604 0.39071977138519287
C 6.264593124389648 1.9389913082122803 -0.22580337524414062
N 7.983752727508545 -0.16742973029613495 -0.8325944542884827
C 6.287723541259766 -2.1320078372955322 0.20397703349590302
C 5.791764736175537 -4.074211597442627 -1.6460837125778198
C 5.391237258911133 -5.706084728240967 -3.1718108654022217
H 6.841772556304932 3.065929412841797 1.4063341617584229
H 5.798133373260498 3.165555953979492 -1.8184645175933838
H 8.302209854125977 -0.364414781332016 -2.7263078689575195
H 6.87831974029541 -2.840428352355957 2.056910276412964
H 5.029922008514404 -7.166011810302734 -4.512760639190674
