15
Generated by QM7 dataset
C -0.8725432753562927 2.723851203918457 -0.8945018649101257
O -2.410062313079834 1.0553364753723145 0.5341311097145081
C -2.514941930770874 -1.430239200592041 -0.4671024978160858
C -0.42214593291282654 -2.991852283477783 0.6035974025726318
C 1.9953429698944092 -2.282543420791626 0.8467862606048584
C 3.0953524112701416 0.0480746328830719 -0.039268508553504944
C 1.9011967182159424 2.151188611984253 -0.794138491153717
H -1.1596871614456177 4.609552383422852 -0.0885714665055275
H -1.5279380083084106 2.8045804500579834 -2.857870578765869
H -2.52093243598938 -1.457300066947937 -2.5370328426361084
H -4.312789440155029 -2.240478277206421 0.1584724336862564
H -0.9613037109375 -4.855556964874268 1.2849382162094116
H 3.3204188346862793 -3.602290391921997 1.7050809860229492
H 5.156061172485352 0.039589762687683105 -0.10023107379674911
H 3.084543228149414 3.707075834274292 -1.444657802581787
