14
Generated by QM7 dataset
C 2.104228973388672 -0.6866697669029236 1.0710400342941284
C 4.129505157470703 -0.24556991457939148 -0.9250020384788513
O 3.6591145992279053 -1.8916536569595337 -3.008500814437866
C 4.077480792999268 2.470968008041382 -1.8707343339920044
C 6.324611186981201 2.932382583618164 -3.547450542449951
O 7.90625524520874 4.57634973526001 -3.122016429901123
H 2.3830201625823975 0.5396301746368408 2.712834119796753
H 2.1327450275421143 -2.6555943489074707 1.7104477882385254
H 0.21437053382396698 -0.34279632568359375 0.2966681122779846
H 5.9936442375183105 -0.71465665102005 -0.15476857125759125
H 3.6535587310791016 -3.6171247959136963 -2.3667118549346924
H 4.152824401855469 3.8093667030334473 -0.29319101572036743
H 2.3800344467163086 2.852182626724243 -2.992513656616211
H 6.455172061920166 1.736204743385315 -5.251095294952393
