17
Generated by QM7 dataset
C 6.166800022125244 -0.7223100066184998 0.787316620349884
O 4.776358604431152 1.5787339210510254 0.8242796659469604
C 6.037712574005127 3.8297946453094482 0.41042962670326233
C 4.238598823547363 6.0267333984375 0.5264776945114136
C 8.541259765625 4.033828258514404 -0.02859155647456646
C 10.046671867370605 6.373744010925293 -0.5056151151657104
O 11.926080703735352 6.556461334228516 1.4009485244750977
H 4.842574596405029 -2.2679924964904785 1.1459299325942993
H 7.593713283538818 -0.7475945353507996 2.284074068069458
H 7.0249247550964355 -1.0382155179977417 -1.0675818920135498
H 3.278977155685425 6.0503363609313965 2.360135555267334
H 2.8012166023254395 5.8331122398376465 -0.949398398399353
H 5.1365966796875 7.865720272064209 0.28221169114112854
H 9.707995414733887 2.3448855876922607 -0.0868896096944809
H 8.950461387634277 8.118754386901855 -0.5029506087303162
H 10.99930191040039 6.229973316192627 -2.335115671157837
H 11.043087005615234 6.561960697174072 3.013319492340088
