15
Generated by QM7 dataset
C 3.6788620948791504 -0.2454376369714737 0.057296495884656906
C 1.9042013883590698 -2.4037883281707764 0.7393175363540649
N -0.0960925742983818 -1.1603296995162964 -0.6381605267524719
C -2.0715556144714355 -0.41350987553596497 0.8624898791313171
N -2.2471866607666016 1.8832443952560425 1.6857490539550781
C 0.014494199305772781 3.125417947769165 0.59550940990448
C 1.3690309524536133 1.1300750970840454 -0.9997218251228333
H 5.087709903717041 -0.7401301264762878 -1.3733584880828857
H 4.625350475311279 0.6641064286231995 1.6509214639663696
H 2.3867807388305664 -4.237975597381592 -0.08585026115179062
H 1.542470097541809 -2.6237523555755615 2.7682409286499023
H -3.4503376483917236 -1.9096438884735107 1.311791181564331
H 1.2182875871658325 3.8402259349823 2.1181373596191406
H -0.5858150720596313 4.723484039306641 -0.5751192569732666
H 1.506905436515808 1.6191740036010742 -3.0078392028808594
