16
Generated by QM7 dataset
C 3.667769432067871 -0.023905035108327866 0.9121140837669373
O 6.33494758605957 0.35394570231437683 1.0658999681472778
C 7.182773590087891 2.370321273803711 -0.30056095123291016
O 5.85788631439209 3.730621814727783 -1.627243161201477
C 10.06199836730957 2.6211068630218506 -0.039419688284397125
C 11.336750984191895 0.9563336968421936 -2.0120480060577393
N 10.830889701843262 5.284657001495361 -0.35481497645378113
H 3.191615104675293 -1.685314416885376 2.0434741973876953
H 3.095427989959717 -0.37898457050323486 -1.0431854724884033
H 2.661811590194702 1.6074765920639038 1.6876577138900757
H 10.61243724822998 2.030529737472534 1.8659533262252808
H 10.805340766906738 1.5162973403930664 -3.934901237487793
H 10.780113220214844 -1.0245906114578247 -1.7730544805526733
H 13.398460388183594 1.0572261810302734 -1.8565236330032349
H 9.893415451049805 6.010708808898926 -1.8822239637374878
H 12.70642375946045 5.384585857391357 -0.7662272453308105
