13
Generated by QM7 dataset
C 2.53262996673584 -0.6514452695846558 0.007180959451943636
O 5.0871429443359375 0.13037221133708954 0.08105035126209259
S 5.631195068359375 3.1546521186828613 -0.09552565962076187
O 4.794858932495117 4.0223388671875 -2.5545129776000977
O 4.693305015563965 4.308065414428711 2.2036473751068115
C 8.906959533691406 3.0968832969665527 0.019426384940743446
C 10.255789756774902 2.2917087078094482 -1.967431664466858
H 2.4703822135925293 -2.7084121704101562 0.18766869604587555
H 1.6649998426437378 -0.12186843901872635 -1.7925375699996948
H 1.471869945526123 0.1795995682477951 1.5749733448028564
H 9.779918670654297 3.735856294631958 1.750415563583374
H 9.355618476867676 1.6621464490890503 -3.703352928161621
H 12.304630279541016 2.258638381958008 -1.896850347518921
