17
Generated by QM7 dataset
C 2.1957106590270996 -2.1547791957855225 0.5003049969673157
C 4.563953399658203 -1.4420499801635742 -0.9236414432525635
N 4.716983318328857 -1.8962267637252808 -3.3204567432403564
N 6.465206623077393 -0.2806243300437927 0.38497501611709595
C 8.610915184020996 0.8280590772628784 -0.8889838457107544
C 10.3530912399292 1.840120792388916 1.1030709743499756
C 10.969330787658691 4.283385753631592 1.370467185974121
H 2.552830934524536 -2.2059340476989746 2.5348408222198486
H 1.5426212549209595 -4.018861770629883 -0.10943403840065002
H 0.7243320345878601 -0.759197473526001 0.10308456420898438
H 3.101512908935547 -2.757469415664673 -3.9525890350341797
H 5.999011039733887 0.5421435236930847 2.049086809158325
H 7.986266136169434 2.330183506011963 -2.1702938079833984
H 9.618176460266113 -0.598646342754364 -2.001786947250366
H 11.181225776672363 0.4555562734603882 2.3754992485046387
H 10.213025093078613 5.727041721343994 0.12602584064006805
H 12.262999534606934 4.887417793273926 2.8410708904266357
