15
Generated by QM7 dataset
C 2.340898275375366 0.5927314758300781 -2.7732486724853516
N 4.902006149291992 0.2302253395318985 -1.8161779642105103
C 6.006154537200928 2.247659206390381 -1.054826259613037
N 8.427233695983887 2.2229793071746826 -0.1012515276670456
C 9.821907997131348 -0.13617366552352905 0.033108003437519073
C 9.612394332885742 4.436812400817871 0.6110618710517883
O 11.794611930847168 4.655453681945801 1.3509840965270996
H 2.1657395362854004 -0.3273950517177582 -4.617092132568359
H 1.8074285984039307 2.5793817043304443 -3.0116565227508545
H 0.9870795607566833 -0.29211387038230896 -1.4843231439590454
H 5.12004280090332 4.135873317718506 -1.098649024963379
H 8.612105369567871 -1.6308525800704956 0.7937794327735901
H 11.502498626708984 0.03928740695118904 1.2224071025848389
H 10.399805068969727 -0.6619899868965149 -1.8821483850479126
H 8.38019847869873 6.108785629272461 0.4335220754146576
