17
Generated by QM7 dataset
C 1.3198981285095215 3.085960626602173 -1.0741959810256958
C 4.093449115753174 3.554234743118286 -1.619816541671753
O 5.538768291473389 2.350252389907837 0.3043026030063629
C 8.19139575958252 2.6546871662139893 -0.07878268510103226
O 9.050106048583984 5.215341567993164 -0.03494103625416756
C 8.911816596984863 6.522427558898926 2.183786392211914
C 7.943387985229492 5.802234172821045 4.404252529144287
H 0.12468413263559341 4.008883953094482 -2.4848198890686035
H 0.8170986771583557 3.8000502586364746 0.8004313111305237
H 0.9114338159561157 1.0579253435134888 -1.0758399963378906
H 4.461284160614014 5.5909624099731445 -1.6223487854003906
H 4.591052055358887 2.7713022232055664 -3.4715402126312256
H 8.704419136047363 1.8462435007095337 -1.9147461652755737
H 9.199376106262207 1.5474400520324707 1.3540455102920532
H 9.72575855255127 8.385772705078125 1.9198861122131348
H 7.081484317779541 3.9677257537841797 4.69914436340332
H 7.958714008331299 7.089402198791504 5.999143600463867
