11
Generated by QM7 dataset
N 1.7262458801269531 -0.079255111515522 0.19458509981632233
C 3.915644884109497 -0.03743547573685646 0.1104733869433403
C 6.627685070037842 0.014966631308197975 -0.008239205926656723
C 7.932862281799316 1.9194892644882202 1.7338426113128662
O 9.617269515991211 -0.023319220170378685 2.6881542205810547
C 8.001856803894043 -1.9556586742401123 1.6024688482284546
H 7.356741428375244 0.0935981348156929 -1.9481942653656006
H 6.7967400550842285 2.726893663406372 3.2640483379364014
H 8.969264030456543 3.4264135360717773 0.7706114053726196
H 9.090036392211914 -3.3560969829559326 0.5408018231391907
H 6.89704704284668 -2.904716968536377 3.07320499420166
