14
Generated by QM7 dataset
C 2.0820436477661133 2.9612765312194824 0.30728837847709656
N 4.242265224456787 1.8655186891555786 0.05279894918203354
O 6.151096343994141 3.7060554027557373 0.17432723939418793
C 8.533020973205566 2.508063316345215 -0.26605454087257385
C 10.547865867614746 4.479028701782227 -0.21644923090934753
C 12.149200439453125 4.916670322418213 2.094364643096924
O 13.072898864746094 3.509977340698242 -0.03367491811513901
H 0.33442482352256775 1.8329020738601685 0.2667537331581116
H 1.8750996589660645 5.020038604736328 0.5663131475448608
H 8.503710746765137 1.5965728759765625 -2.124732494354248
H 8.84992790222168 1.0647095441818237 1.1853117942810059
H 10.210643768310547 6.01923131942749 -1.5164484977722168
H 11.730569839477539 3.8753559589385986 3.805473804473877
H 12.926464080810547 6.784079074859619 2.3970608711242676
