17
Generated by QM7 dataset
C 1.930582046508789 -0.36214712262153625 0.02579476125538349
N 4.657078742980957 -0.02783566527068615 0.006803013850003481
C 5.594912052154541 2.618555784225464 0.0
C 4.689506530761719 4.0414628982543945 -2.3766329288482666
C 4.689922332763672 4.045223236083984 2.3728346824645996
C 8.323677062988281 2.618555784225464 0.0
N 10.498770713806152 2.618555784225464 0.0
H 1.5086628198623657 -2.389331817626953 0.06188853085041046
H 1.030580997467041 0.41294294595718384 -1.6641305685043335
H 1.053673505783081 0.45069968700408936 1.7092950344085693
H 5.39626407623291 -0.9575998187065125 -1.514029622077942
H 5.2213134765625 3.034956932067871 -4.1088128089904785
H 5.53999662399292 5.929204940795898 -2.4867660999298096
H 2.636791467666626 4.302793025970459 -2.394245147705078
H 5.206100940704346 3.031460762023926 4.105467796325684
H 2.639739513397217 4.325526237487793 2.382094383239746
H 5.555568218231201 5.925652027130127 2.4900920391082764
