13
Generated by QM7 dataset
C 2.2293100357055664 0.06232316792011261 0.012018658220767975
C 5.011289119720459 0.0843195766210556 -0.000907068548258394
N 6.577380657196045 2.014977216720581 0.002135390415787697
N 8.982189178466797 1.0088303089141846 -0.014135151170194149
C 8.707178115844727 -1.461684226989746 -0.025700274854898453
C 10.644865036010742 -3.4574239253997803 -0.045504603534936905
O 6.227478981018066 -2.1997735500335693 -0.018500419333577156
H 1.4878569841384888 -1.8675596714019775 -0.004762109834700823
H 1.4982693195343018 1.0495916604995728 -1.6504490375518799
H 1.514256477355957 1.014461636543274 1.7017172574996948
H 9.791918754577637 -5.340895175933838 -0.018991747871041298
H 11.871467590332031 -3.2810559272766113 1.6093286275863647
H 11.815077781677246 -3.302107334136963 -1.7427242994308472
