12
Generated by QM7 dataset
O 4.730097770690918 -0.8930845856666565 -2.516396999359131
C 4.557225704193115 0.06079249083995819 -0.0012661165092140436
C 5.335282802581787 2.7579987049102783 -0.006991986650973558
N 3.9286651611328125 4.800168991088867 0.2808133065700531
C 5.631610870361328 6.747588634490967 0.14069011807441711
C 8.024362564086914 5.808016777038574 -0.1864592730998993
O 7.869065284729004 3.2410504817962646 -0.2632577419281006
H 4.099194049835205 -2.61519193649292 -2.467302083969116
H 5.790309906005859 -1.0569238662719727 1.2252984046936035
H 2.6025497913360596 -0.12691400945186615 0.6466075778007507
H 5.0493669509887695 8.700318336486816 0.28534865379333496
H 9.886555671691895 6.617272853851318 -0.3846537470817566
