18
Generated by QM7 dataset
C 1.479428768157959 0.37813419103622437 -0.8870185613632202
C 4.1822662353515625 0.007861260324716568 -0.06529004126787186
C 4.706740856170654 0.23810549080371857 2.7493436336517334
C 3.040210247039795 -1.4535017013549805 4.392196178436279
O 3.5414791107177734 -4.049890995025635 3.9226367473602295
C 5.852878570556641 -1.7035503387451172 -1.644439697265625
N 6.112999439239502 1.0332833528518677 -1.7885690927505493
H 1.3147958517074585 0.587005615234375 -2.9423980712890625
H 0.6791486740112305 2.073955535888672 -0.014626480638980865
H 0.32694151997566223 -1.2494113445281982 -0.34028297662734985
H 4.423395156860352 2.2127938270568848 3.3137481212615967
H 6.693202018737793 -0.22565220296382904 3.13142728805542
H 1.0267448425292969 -1.0936033725738525 4.10270881652832
H 3.456573724746704 -1.0957199335098267 6.386991024017334
H 2.940735101699829 -4.428913116455078 2.2274012565612793
H 5.063180923461914 -2.6070473194122314 -3.303562641143799
H 7.387600898742676 -2.7220938205718994 -0.7519786953926086
H 7.6751604080200195 1.6314383745193481 -0.8230324387550354
