16
Generated by QM7 dataset
C 0.957732081413269 0.3615990877151489 0.01738548092544079
C 3.690068244934082 -0.16729745268821716 0.48866426944732666
C 5.563599586486816 1.4450736045837402 -0.0801621824502945
C 8.314946174621582 0.9210147261619568 0.37722712755203247
C 9.438841819763184 2.8273136615753174 2.1516611576080322
C 11.331932067871094 4.39780855178833 1.5517674684524536
H 0.17806889116764069 -1.0545616149902344 -1.272806167602539
H 0.6525980234146118 2.231048583984375 -0.8148121237754822
H -0.0944485142827034 0.26930487155914307 1.7963358163833618
H 4.128012180328369 -1.982832908630371 1.346996784210205
H 5.120231628417969 3.256376028060913 -0.9500031471252441
H 9.29981517791748 0.9371529817581177 -1.446282982826233
H 8.585705757141113 -0.9684090614318848 1.1841968297958374
H 8.649276733398438 2.8977627754211426 4.048832893371582
H 12.187694549560547 4.394293785095215 -0.3127496838569641
H 12.06454086303711 5.730103015899658 2.928962230682373
