15
Generated by QM7 dataset
C 1.8914457559585571 -0.10196962207555771 0.005234541371464729
C 4.762109756469727 0.0 0.0
C 5.672995567321777 2.5722384452819824 0.0
C 6.423746109008789 4.692322254180908 0.0
C 7.470276355743408 7.183453559875488 0.09983423352241516
C 7.377452850341797 8.848302841186523 -2.1995656490325928
O 5.6238627433776855 9.146746635437012 -0.15954957902431488
H 1.2424571514129639 -2.066113233566284 0.004025116562843323
H 1.1059622764587402 0.835353434085846 -1.665245532989502
H 1.1122361421585083 0.8311771154403687 1.680930256843567
H 5.472193241119385 -1.0068082809448242 -1.6643762588500977
H 5.478429317474365 -1.0092459917068481 1.6601999998092651
H 8.989200592041016 7.496052265167236 1.4370989799499512
H 6.661322593688965 8.082226753234863 -3.956897497177124
H 8.834053993225098 10.269848823547363 -2.4163928031921387
