13
Generated by QM7 dataset
C 1.9619137048721313 -0.08881712704896927 0.698461651802063
C 4.762109756469727 0.0 0.0
N 5.174032211303711 -1.1754852533340454 -2.4639194011688232
C 5.376894474029541 -3.738464117050171 -2.7263267040252686
O 5.281935691833496 -5.261413097381592 -0.9947140216827393
C 5.672995567321777 2.5722384452819824 0.0
N 6.399047374725342 4.622572422027588 0.0
H 1.6294353008270264 0.7650178074836731 2.5555901527404785
H 1.2698770761489868 -2.038787841796875 0.7622021436691284
H 0.806327223777771 0.9349042177200317 -0.6838918924331665
H 5.812551975250244 -1.1008410453796387 1.407109022140503
H 5.182290554046631 -0.07851812243461609 -4.033545017242432
H 5.6446685791015625 -4.305155277252197 -4.714054107666016
