16
Generated by QM7 dataset
O 4.757725715637207 -2.253328323364258 -1.2972402572631836
C 3.226423978805542 -0.6532405018806458 0.24311326444149017
C 4.215903282165527 2.0655651092529297 0.11009544134140015
N 6.755128383636475 2.2062551975250244 1.2168891429901123
C 7.887414455413818 4.683440685272217 0.8046832084655762
C 10.429134368896484 4.74066162109375 1.9164279699325562
C 12.509476661682129 4.787508010864258 2.824554681777954
H 4.192224979400635 -3.975114583969116 -0.9910668730735779
H 3.2595508098602295 -1.3641177415847778 2.186753273010254
H 1.285259485244751 -0.7394498586654663 -0.4656663239002228
H 2.9276015758514404 3.317697763442993 1.1379553079605103
H 4.279322624206543 2.653477907180786 -1.8764413595199585
H 7.8450469970703125 0.8627166748046875 0.3532654047012329
H 6.724401473999023 6.154139041900635 1.6881113052368164
H 8.013742446899414 5.103488922119141 -1.2192134857177734
H 14.349011421203613 4.818083763122559 3.6410865783691406
