18
Generated by QM7 dataset
C 5.788628101348877 -0.4941255748271942 1.3884762525558472
O 4.3397369384765625 1.6871474981307983 0.7796443104743958
C 5.58461332321167 3.9233548641204834 0.256549209356308
C 3.725179433822632 6.000144958496094 -0.302053838968277
C 8.118226051330566 4.213106632232666 0.24740295112133026
C 9.613452911376953 6.549148082733154 -0.2949862480163574
N 11.237407684326172 7.106844425201416 1.8561835289001465
H 4.473397731781006 -2.0454585552215576 1.7597507238388062
H 6.907327175140381 -0.18759311735630035 3.1013617515563965
H 6.991722106933594 -1.0493649244308472 -0.19997082650661469
H 2.5714070796966553 6.376087188720703 1.3743599653244019
H 2.461595058441162 5.415879726409912 -1.834394931793213
H 4.592204570770264 7.77971887588501 -0.8763415813446045
H 9.323039054870605 2.600830078125 0.6568499207496643
H 8.448739051818848 8.200617790222168 -0.7060394883155823
H 10.796401977539062 6.207164764404297 -1.9591925144195557
H 10.125889778137207 7.540593147277832 3.3690226078033447
H 12.253494262695312 8.696368217468262 1.4759328365325928
