15
Generated by QM7 dataset
O 2.2002837657928467 0.1434491127729416 1.2448004484176636
N 4.387528419494629 -0.00013228082389105111 -0.23506303131580353
C 5.550900459289551 2.159144401550293 -0.2756543457508087
C 4.769744396209717 4.542788028717041 1.0308456420898438
C 6.301764011383057 6.439128398895264 -0.49624207615852356
N 8.673843383789062 5.150826454162598 -1.1276373863220215
C 7.967501163482666 2.535029888153076 -1.7422330379486084
H 1.5193209648132324 -1.5633704662322998 1.1105542182922363
H 5.378198146820068 4.461983680725098 3.0036439895629883
H 2.742446184158325 4.894447326660156 0.8996986150741577
H 5.292726039886475 6.94559383392334 -2.2350547313690186
H 6.651609420776367 8.1731595993042 0.5730027556419373
H 9.528641700744629 5.987956523895264 -2.6351852416992188
H 7.583357810974121 2.3057494163513184 -3.7632572650909424
H 9.420605659484863 1.201431155204773 -1.1272215843200684
