19
Generated by QM7 dataset
C 5.691231727600098 -1.952351689338684 -1.3382095098495483
C 4.509831428527832 0.2655254304409027 0.055123310536146164
C 6.276026248931885 2.477374315261841 0.17765314877033234
C 6.517967700958252 4.4075026512146 -1.9216814041137695
C 5.032057285308838 4.267965316772461 -4.311050891876221
C 5.219933986663818 5.102581977844238 0.5155739784240723
O 6.602249622344971 6.73585319519043 2.177663803100586
H 4.390098571777344 -3.559034585952759 -1.3677648305892944
H 7.443385601043701 -2.555722236633301 -0.41874441504478455
H 6.143651008605957 -1.449741244316101 -3.2921485900878906
H 4.051440715789795 -0.3207054138183594 1.9894847869873047
H 2.7160656452178955 0.7688539624214172 -0.8481847047805786
H 7.975456714630127 2.0033931732177734 1.2232385873794556
H 8.388588905334473 5.166889190673828 -2.2743988037109375
H 3.0565185546875 3.745682954788208 -3.9972431659698486
H 5.875290870666504 2.8838164806365967 -5.595195770263672
H 5.050009727478027 6.107972621917725 -5.257217884063721
H 3.1803524494171143 5.328139305114746 0.48883435130119324
H 8.415120124816895 6.456343650817871 2.0847079753875732
