10
Generated by QM7 dataset
C -1.2011098861694336 -2.350233554840088 -0.04164956510066986
C -2.634486198425293 -0.15616697072982788 -0.047167565673589706
C -1.3800859451293945 2.128077268600464 0.11230642348527908
N 1.158080816268921 2.293163776397705 0.27108120918273926
N 2.5651142597198486 0.13951848447322845 0.2765047252178192
C 1.3942588567733765 -2.1192712783813477 0.12298337370157242
H -2.0829694271087646 -4.194983959197998 -0.16255424916744232
H -4.677412509918213 -0.22329004108905792 -0.17253199219703674
H -2.3795621395111084 3.915210247039795 0.11791890859603882
H 2.629950761795044 -3.7523157596588135 0.13725081086158752
