12
Generated by QM7 dataset
C 1.8203164339065552 -0.21011865139007568 0.030330104753375053
C 4.6678314208984375 0.1104733869433403 0.03307020664215088
C 5.370771884918213 2.87111759185791 0.015098911710083485
O 5.600070953369141 4.121171474456787 -1.9191681146621704
C 5.693442344665527 4.074211597442627 2.4511258602142334
C 5.957928657531738 5.078922271728516 4.469976902008057
H 1.319935917854309 -2.2161386013031006 -0.005442411173135042
H 0.9727554321289062 0.6996899843215942 -1.6239739656448364
H 0.9723396897315979 0.6386518478393555 1.7162870168685913
H 5.493622779846191 -0.7776222825050354 -1.6450254917144775
H 5.505301475524902 -0.8158136606216431 1.684199571609497
H 6.195070266723633 5.9902238845825195 6.249702453613281
