17
Generated by QM7 dataset
C 6.845457553863525 -2.1336143016815186 1.6059271097183228
O 5.028995990753174 -0.38495612144470215 0.6688496470451355
C 5.861098766326904 1.9870470762252808 0.07109149545431137
C 8.180700302124023 2.978548526763916 0.32928478717803955
C 8.994321823120117 5.5985026359558105 -0.4021148383617401
C 7.042159080505371 7.254091739654541 -1.723732590675354
O 9.796000480651855 6.839334487915039 1.847906470298767
H 5.877747535705566 -3.9249610900878906 1.965541958808899
H 7.656716823577881 -1.4762918949127197 3.3919260501861572
H 8.326454162597656 -2.4788105487823486 0.2032778412103653
H 4.2746171951293945 3.038660764694214 -0.6917531490325928
H 9.69937801361084 1.845752239227295 1.1211745738983154
H 10.652046203613281 5.437384605407715 -1.632723331451416
H 5.403822898864746 7.612364768981934 -0.5087898373603821
H 6.392678737640381 6.399104118347168 -3.491816997528076
H 7.8590497970581055 9.10604190826416 -2.1596357822418213
H 8.348186492919922 6.885538578033447 2.980098009109497
