12
Generated by QM7 dataset
O 2.3224356174468994 -0.2883722186088562 -0.8204246163368225
C 4.563272953033447 0.14223968982696533 -0.5091866850852966
C 5.553942680358887 2.575035333633423 0.4798392653465271
C 8.070680618286133 2.4114983081817627 0.2656954824924469
C 8.935040473937988 -0.0031180481892079115 -0.746819794178009
C 8.355196952819824 -2.3928279876708984 0.6385951638221741
N 6.622621059417725 -1.3901770114898682 -1.1655263900756836
H 4.387717247009277 4.101650714874268 1.1333632469177246
H 9.362686157226562 3.906630754470825 0.7917196750640869
H 10.175872802734375 -0.0021542878821492195 -2.3719654083251953
H 9.244786262512207 -4.129524230957031 0.032011959701776505
H 7.724520206451416 -2.340010166168213 2.5829720497131348
