19
Generated by QM7 dataset
C 3.4079320430755615 -1.434604525566101 0.4654395580291748
N 5.985367298126221 -1.0651441812515259 -0.5010231137275696
C 6.383626937866211 -2.8280129432678223 -2.612565279006958
N 6.540701389312744 1.382580280303955 -1.0465869903564453
C 8.671991348266602 2.215911865234375 -0.14318454265594482
C 10.509693145751953 0.678033709526062 1.4119844436645508
C 9.415938377380371 4.898472309112549 -0.7517708539962769
H 3.0953335762023926 -0.23413707315921783 2.1233718395233154
H 3.115912675857544 -3.3911514282226562 1.0751408338546753
H 1.9803006649017334 -0.9525920748710632 -0.9551809430122375
H 6.099809169769287 -4.786676406860352 -2.005811929702759
H 8.331047058105469 -2.6883432865142822 -3.301408290863037
H 5.112786293029785 -2.4230635166168213 -4.196458339691162
H 11.484527587890625 -0.6677914261817932 0.18424829840660095
H 9.522330284118652 -0.33599331974983215 2.9163765907287598
H 11.915081977844238 1.9179964065551758 2.2822978496551514
H 7.933315753936768 5.8433356285095215 -1.8375129699707031
H 11.161044120788574 4.885130882263184 -1.857865333557129
H 9.730842590332031 5.93823766708374 1.0056177377700806
