12
Generated by QM7 dataset
C 1.268610954284668 2.2891385555267334 -0.5216400027275085
O -1.4364186525344849 2.5938758850097656 -0.4014912247657776
C -2.567570924758911 0.1206212192773819 -0.5640643835067749
C -0.6166931986808777 -1.7019062042236328 0.3053608536720276
O 1.3461652994155884 -2.30745005607605 -1.4556182622909546
C 1.809847354888916 -0.3303997218608856 0.33204376697540283
H 1.890992283821106 2.609466075897217 -2.468700408935547
H 2.13796067237854 3.7038822174072266 0.7086473107337952
H -4.248047828674316 0.09408946335315704 0.6380660533905029
H -3.130218029022217 -0.22873245179653168 -2.524012804031372
H -1.1249350309371948 -2.989527940750122 1.794672966003418
H 3.149568796157837 -0.5730972290039062 1.8421050310134888
