18
Generated by QM7 dataset
C 1.909020185470581 0.006595144048333168 0.0970185399055481
C 4.778796195983887 -0.0029479728545993567 -0.10093027353286743
C 6.117629528045654 -1.8239636421203613 -2.011613368988037
C 8.947021484375 -1.4227747917175293 -1.6159048080444336
C 8.960230827331543 1.4651613235473633 -1.5348544120788574
C 6.134655952453613 1.913328766822815 -1.9039746522903442
N 5.338079452514648 0.10633488744497299 -3.9965250492095947
H 1.2759997844696045 1.621951937675476 1.2246370315551758
H 1.2510175704956055 -1.7170807123184204 1.0339447259902954
H 0.9751553535461426 0.12009209394454956 -1.7450486421585083
H 5.559007167816162 -0.06549790501594543 1.823453426361084
H 5.385719299316406 -3.7359507083892822 -2.2410261631011963
H 9.619084358215332 -2.255709409713745 0.15452291071414948
H 10.075849533081055 -2.1626782417297363 -3.1842262744903564
H 10.09402847290039 2.2809183597564697 -3.061866521835327
H 9.64193058013916 2.192365884780884 0.27771416306495667
H 5.419394493103027 3.8413219451904297 -2.0243124961853027
H 6.460350036621094 0.1458301693201065 -5.561861038208008
