11
Generated by QM7 dataset
O 2.152379274368286 0.6011219024658203 -0.12217079102993011
S 5.149125576019287 0.010166727006435394 0.00032125343568623066
O 5.633216857910156 -1.186880350112915 2.406981945037842
O 5.712396621704102 -1.2123348712921143 -2.3800723552703857
C 6.262911319732666 3.224212884902954 0.0
C 8.991676330566406 3.224212884902954 0.0
C 11.240752220153809 3.224212884902954 0.0
H 1.4305038452148438 -0.44839420914649963 -1.4720021486282349
H 5.494473457336426 4.139577388763428 1.6855601072311401
H 5.500747203826904 4.137630939483643 -1.6897175312042236
H 13.256107330322266 3.2103044986724854 0.0032881235238164663
