11
Generated by QM7 dataset
O 2.24658203125 -0.40090540051460266 0.7762994766235352
C 4.4676337242126465 -0.08424399048089981 0.38767731189727783
C 6.26737117767334 2.1347858905792236 -0.11682286858558655
C 8.064481735229492 0.08433847874403 -1.1530542373657227
N 6.34774112701416 -1.795674443244934 -0.003590479725971818
C 8.222273826599121 -0.13528549671173096 -3.880420446395874
N 8.338340759277344 -0.3204975426197052 -6.062997341156006
H 6.904001235961914 3.089380979537964 1.6026389598846436
H 5.552752494812012 3.516629219055176 -1.475233554840088
H 9.914353370666504 0.06632938981056213 -0.2219294309616089
H 5.830258846282959 -3.5089569091796875 -0.6807171702384949
