22
Generated by QM7 dataset
C 3.1070499420166016 -0.9144951701164246 0.9022497534751892
N 5.698601245880127 -0.1932055950164795 1.4927135705947876
C 6.3697943687438965 2.360097885131836 0.61064612865448
C 4.748182773590088 4.3998494148254395 1.8860411643981934
C 9.233768463134766 2.9144489765167236 1.0182222127914429
C 10.083502769470215 2.673527956008911 3.778186082839966
C 10.915304183959961 1.2581607103347778 -0.6651080250740051
H 2.823401927947998 -2.898386240005493 1.4130804538726807
H 2.697357177734375 -0.7179258465766907 -1.1151084899902344
H 1.73924720287323 0.18351130187511444 1.9936610460281372
H 6.885160446166992 -1.4763485193252563 0.682682454586029
H 6.015055179595947 2.4697964191436768 -1.4320344924926758
H 4.7520751953125 4.214183807373047 3.947392225265503
H 2.782130479812622 4.304720401763916 1.2460476160049438
H 5.440578460693359 6.292731285095215 1.4129860401153564
H 9.574864387512207 4.8790082931518555 0.43905895948410034
H 9.865655899047852 0.7404325008392334 4.480503082275391
H 9.00991153717041 3.935751438140869 5.013197898864746
H 12.08073616027832 3.1845664978027344 3.9660816192626953
H 10.851242065429688 -0.7326090335845947 -0.10984978079795837
H 12.887723922729492 1.874343752861023 -0.5413876175880432
H 10.340335845947266 1.400305986404419 -2.6467125415802
