17
Generated by QM7 dataset
C 3.043668508529663 4.0883469581604 2.245013475418091
C 4.047642230987549 1.6339894533157349 1.137445092201233
N 6.529211521148682 1.9821337461471558 0.011905274353921413
O 6.461464881896973 3.250669002532959 -2.317654609680176
C 8.68058967590332 2.4756357669830322 1.3818811178207397
N 10.690841674804688 3.479609489440918 0.44149672985076904
C 12.74072265625 3.8363897800445557 2.250758409500122
H 1.162068247795105 3.793795347213745 3.0510194301605225
H 2.9031107425689697 5.5606513023376465 0.7986738681793213
H 4.280739784240723 4.792553424835205 3.7462496757507324
H 2.7312588691711426 0.9257579445838928 -0.29644134640693665
H 4.154166221618652 0.1907111555337906 2.619330406188965
H 8.253132820129395 3.654409170150757 -2.6070661544799805
H 8.500479698181152 1.9199050664901733 3.38688063621521
H 12.943452835083008 5.846113681793213 2.686321258544922
H 14.513191223144531 3.1812217235565186 1.4070712327957153
H 12.480356216430664 2.8037867546081543 4.028386116027832
