14
Generated by QM7 dataset
C 1.6782846450805664 0.01729099452495575 0.036244947463274
C 4.494977951049805 -0.15917162597179413 -0.022979069501161575
C 6.039092063903809 1.8560701608657837 0.024604234844446182
C 8.856919288635254 1.7090682983398438 -0.025227844715118408
N 9.80391788482666 3.1069555282592773 -2.1934051513671875
H 0.9452599287033081 -0.986569344997406 1.688904881477356
H 0.8830501437187195 -0.8560081720352173 -1.6611826419830322
H 1.0170694589614868 1.9751795530319214 0.1248164102435112
H 5.286301136016846 -2.0530741214752197 -0.11427173763513565
H 5.2404561042785645 3.748422861099243 0.12288889288902283
H 9.518512725830078 -0.2504831850528717 -0.11601028591394424
H 9.610126495361328 2.5446295738220215 1.7115060091018677
H 9.160371780395508 2.2595832347869873 -3.7988598346710205
H 11.721177101135254 2.9557018280029297 -2.2452213764190674
