15
Generated by QM7 dataset
N 2.4840826988220215 -0.21561774611473083 1.3470723628997803
C 3.96897292137146 0.3701973557472229 -0.6921688914299011
O 3.606088876724243 -0.7090441584587097 -2.7195427417755127
C 6.0337066650390625 2.4375576972961426 -0.15386150777339935
C 5.448855400085449 5.175544261932373 -0.9764781594276428
C 6.705976486206055 5.934325695037842 1.5254814624786377
N 6.046008586883545 3.4056265354156494 2.527829885482788
H 2.6559534072875977 0.8282291889190674 2.943342924118042
H 1.0140269994735718 -1.4086207151412964 1.1130486726760864
H 7.915779113769531 1.804121494293213 -0.7631092071533203
H 3.430722236633301 5.632139682769775 -1.0858744382858276
H 6.389542102813721 5.831052303314209 -2.6941258907318115
H 8.746087074279785 6.266294002532959 1.3836764097213745
H 5.832035064697266 7.518067359924316 2.5227277278900146
H 7.413773536682129 2.610618829727173 3.6285576820373535
