13
Generated by QM7 dataset
O 3.0791008472442627 0.44408562779426575 2.401293992996216
C 4.610856056213379 0.03407176211476326 0.7304736375808716
C 5.650167942047119 -2.4901487827301025 -0.04605262726545334
C 7.389679431915283 -1.8180676698684692 -2.1722970008850098
C 9.612526893615723 -0.07814017683267593 -1.7629255056381226
N 7.239956378936768 0.8904200792312622 -2.7837178707122803
N 5.762436389923096 1.823642373085022 -0.7968975305557251
H 4.108377933502197 -3.703372001647949 -0.6925657391548157
H 6.666670322418213 -3.365413188934326 1.5237807035446167
H 7.406460285186768 -3.127232074737549 -3.7379539012908936
H 10.159035682678223 0.4596380889415741 0.13630594313144684
H 11.165447235107422 -0.18005309998989105 -3.094331979751587
H 5.212223529815674 3.6561853885650635 -0.7315318584442139
