16
Generated by QM7 dataset
C 1.8575440645217896 0.19354574382305145 0.4142090678215027
C 4.649954795837402 -0.18950173258781433 -0.17691616714000702
N 5.211524486541748 -2.8028228282928467 -0.9919739365577698
C 5.241268634796143 -2.877410411834717 -3.7751059532165527
C 5.97506856918335 -0.26533645391464233 -4.520602703094482
O 3.99550461769104 1.578941822052002 -4.533245086669922
C 5.559082984924316 1.4121167659759521 -2.3248355388641357
H 1.4865530729293823 2.168215036392212 0.9112070202827454
H 1.2727872133255005 -0.9909723997116089 2.0074939727783203
H 0.6495555639266968 -0.27627795934677124 -1.2007887363433838
H 5.76173734664917 0.21614687144756317 1.5214751958847046
H 3.8922312259674072 -4.028083324432373 -0.31664252281188965
H 6.606425762176514 -4.28108024597168 -4.435262680053711
H 3.3688714504241943 -3.3574764728546143 -4.5164265632629395
H 7.607073783874512 -0.0565217100083828 -5.716875076293945
H 6.876430034637451 2.897573709487915 -1.8763846158981323
