16
Generated by QM7 dataset
C 2.0723493099212646 0.9817694425582886 -1.9044848680496216
O 1.2019225358963013 2.6442558765411377 0.05289343371987343
C 1.1013702154159546 -0.015665829181671143 0.5674469470977783
C 2.735208511352539 -0.8331235647201538 2.7259867191314697
C 1.6468207836151123 -0.9143818020820618 5.432962417602539
C 3.0358450412750244 -3.4529454708099365 5.6352009773254395
N 2.9007296562194824 -3.6383652687072754 2.845228433609009
H 0.8918373584747314 0.77442866563797 -3.56135892868042
H 4.08366060256958 0.9185958504676819 -2.267784833908081
H -0.7408104538917542 -0.9057457447052002 0.620415985584259
H 4.610761642456055 0.06062241271138191 2.669257164001465
H -0.41634446382522583 -1.0661834478378296 5.5356316566467285
H 2.286663055419922 0.5720201134681702 6.714291572570801
H 4.969583034515381 -3.3091373443603516 6.367205619812012
H 2.0349326133728027 -4.945167541503906 6.654349327087402
H 4.471583366394043 -4.381934642791748 2.01686692237854
