15
Generated by QM7 dataset
C 5.45214319229126 4.915536880493164 -5.927938461303711
C 3.8787574768066406 4.872734546661377 -3.950151205062866
O 4.402287006378174 5.136048793792725 -1.4382327795028687
C 6.98663854598999 5.449535369873047 -0.6886729001998901
O 7.9472808837890625 7.889020919799805 -1.3352805376052856
C 10.369607925415039 8.438005447387695 -0.6341354250907898
C 12.046645164489746 6.99863862991333 0.5923157334327698
H 4.713902950286865 4.682514667510986 -7.827585697174072
H 7.4696149826049805 5.210976600646973 -5.746789455413818
H 1.8590558767318726 4.610100269317627 -4.18901252746582
H 8.14660930633545 3.935014486312866 -1.5040708780288696
H 7.006310939788818 5.245086193084717 1.3724702596664429
H 10.821328163146973 10.346912384033203 -1.2354462146759033
H 11.654942512512207 5.090733051300049 1.219440221786499
H 13.91456413269043 7.7420759201049805 1.008055567741394
