12
Generated by QM7 dataset
O 1.821393609046936 -0.087664395570755 0.27461498975753784
C 4.486247539520264 -0.024509748443961143 0.31344887614250183
C 5.480602741241455 2.191761016845703 -1.1473283767700195
C 6.877525806427002 1.3688987493515015 -3.1031758785247803
C 6.878735542297363 -1.3560296297073364 -3.1199378967285156
C 5.492319107055664 -2.2044222354888916 -1.1752395629882812
H 1.2345203161239624 1.641416072845459 0.42541515827178955
H 5.171027660369873 -0.03378830477595329 2.2630794048309326
H 5.1526594161987305 4.146002292633057 -0.673196017742157
H 7.841550827026367 2.5271496772766113 -4.477932929992676
H 7.826357364654541 -2.498218059539795 -4.5186944007873535
H 5.125730991363525 -4.1587958335876465 -0.7301334738731384
