18
Generated by QM7 dataset
N 1.525557041168213 -0.09754766523838043 -1.0656543970108032
C 4.160364151000977 -0.01744217239320278 -0.15752756595611572
C 6.084540367126465 -1.3800859451293945 -1.7861502170562744
C 6.015621662139893 1.4511395692825317 -1.7737536430358887
C 4.494392395019531 -0.024812104180455208 2.7568836212158203
C 2.8749537467956543 1.5241397619247437 4.527670383453369
C 2.664778470993042 -1.3041378259658813 4.537100315093994
H 1.4486451148986816 -0.0370953232049942 -2.986428737640381
H 0.5813553333282471 1.4604558944702148 -0.44716590642929077
H 5.431545257568359 -2.3633482456207275 -3.4593327045440674
H 7.649611473083496 -2.3115129470825195 -0.8486760258674622
H 7.540253162384033 2.44118595123291 -0.8287960886955261
H 5.334432125091553 2.403618335723877 -3.452775239944458
H 6.47102689743042 -0.16845019161701202 3.33428955078125
H 1.3114888668060303 2.594726324081421 3.7564165592193604
H 3.79606294631958 2.4242351055145264 6.120218276977539
H 3.4437990188598633 -2.3288984298706055 6.129194259643555
H 0.9769506454467773 -2.1518311500549316 3.7443599700927734
