17
Generated by QM7 dataset
C 1.8350940942764282 0.10952852666378021 -0.08594474196434021
C 4.697916030883789 0.00999665167182684 0.1551654189825058
O 5.3804850578308105 -2.294977903366089 1.4428248405456543
C 6.382474422454834 -1.664508581161499 3.8847856521606445
C 6.74363899230957 1.112708568572998 3.8552680015563965
C 5.7740960121154785 2.077848434448242 1.7428944110870361
C 5.755387783050537 4.771331787109375 0.9572596549987793
H 1.1572872400283813 -1.514634370803833 -1.1780552864074707
H 1.2064768075942993 1.8413680791854858 -1.0270094871520996
H 0.9187659621238708 -0.006103815510869026 1.7674797773361206
H 5.580777168273926 -0.028232509270310402 -1.7151910066604614
H 8.166092872619629 -2.6758711338043213 4.154392719268799
H 5.0326619148254395 -2.244314432144165 5.33790922164917
H 7.640635013580322 2.165569543838501 5.353084087371826
H 5.262282371520996 4.95805549621582 -1.0457744598388672
H 7.620584964752197 5.6280012130737305 1.2204607725143433
H 4.3703131675720215 5.839442729949951 2.05666446685791
