15
Generated by QM7 dataset
C 1.8302942514419556 -0.020220069214701653 0.025001076981425285
C 4.6920390129089355 0.03271115943789482 0.03953307121992111
C 5.957928657531738 1.9851194620132446 1.8185778856277466
C 8.016331672668457 -0.01670517958700657 2.321963310241699
C 6.033989906311035 -2.0369925498962402 1.6203457117080688
H 1.1378041505813599 -1.6449499130249023 -1.0545049905776978
H 1.0749329328536987 1.694177269935608 -0.8541561961174011
H 1.0572072267532349 -0.14970409870147705 1.9396148920059204
H 5.438934326171875 0.14303337037563324 -1.896094560623169
H 4.8464484214782715 2.4685871601104736 3.498903512954712
H 6.608750343322754 3.7277872562408447 0.9202966094017029
H 9.612299919128418 0.07793230563402176 1.004483938217163
H 8.739681243896484 -0.09834134578704834 4.254642963409424
H 6.748344421386719 -3.6565444469451904 0.5569778680801392
H 4.945300102233887 -2.723832368850708 3.243431568145752
