14
Generated by QM7 dataset
N 3.7001404762268066 -0.8034926652908325 -2.4322097301483154
C 4.593376159667969 0.21455951035022736 -0.0219208225607872
C 6.147808074951172 2.610335350036621 -0.4292701780796051
C 4.719061851501465 4.999383926391602 -1.240813136100769
C 5.576600551605225 5.9697771072387695 1.3538376092910767
O 5.368352890014648 7.879061698913574 2.587242841720581
O 6.783549785614014 3.792963743209839 1.9779763221740723
H 2.548994779586792 -2.3137617111206055 -2.0866355895996094
H 5.190699577331543 -1.5181870460510254 -3.427018404006958
H 5.735545635223389 -1.218703269958496 0.9409513473510742
H 2.956230878829956 0.6124980449676514 1.1822315454483032
H 7.873600482940674 2.2657248973846436 -1.5274089574813843
H 2.6736979484558105 4.842914581298828 -1.4340187311172485
H 5.538088321685791 6.028963565826416 -2.8307530879974365
