12
Generated by QM7 dataset
C 1.8876473903656006 0.09214304387569427 -0.012377706356346607
C 4.686445236206055 0.09915392845869064 -0.0030046645551919937
N 6.182522296905518 2.0439276695251465 0.0016440617619082332
C 8.584118843078613 1.022776484489441 0.007464418187737465
C 8.804800987243652 -1.498930811882019 0.006387274246662855
C 6.177288055419922 -2.322227716445923 -0.0011149384081363678
O 5.3347344398498535 -4.443445205688477 -0.004969979636371136
H 1.1717246770858765 2.0295469760894775 0.004100705496966839
H 1.1930408477783203 -0.9012482166290283 1.6600676774978638
H 1.205021619796753 -0.8682724833488464 -1.7088415622711182
H 10.189157485961914 2.2994754314422607 0.012415500357747078
H 10.447558403015137 -2.683411121368408 0.009921061806380749
