15
Generated by QM7 dataset
C 2.578814744949341 0.41439804434776306 -1.2419847249984741
O 5.190340518951416 0.6159940361976624 -0.6412596702575684
C 6.115191459655762 2.9821012020111084 -0.08055902272462845
C 4.8101277351379395 5.160218238830566 -0.05727759748697281
C 8.869807243347168 3.0778157711029053 0.5683917999267578
N 10.115571975708008 5.119721412658691 1.1113290786743164
N 12.58684253692627 4.696385383605957 1.6184560060501099
H 2.165172576904297 -1.5758048295974731 -1.6199676990509033
H 2.125885248184204 1.4927513599395752 -2.9488987922668457
H 1.4021011590957642 1.016767144203186 0.3497316241264343
H 2.8172225952148438 5.274188041687012 -0.49722474813461304
H 5.725473403930664 6.935880661010742 0.4200294315814972
H 9.80684757232666 1.207686185836792 0.5547668933868408
H 13.387462615966797 6.326859951019287 2.280200242996216
H 13.558539390563965 4.286654949188232 -0.0021920823492109776
