21
Generated by QM7 dataset
C 1.7794795036315918 0.059507474303245544 -0.020598014816641808
C 4.665563583374023 -0.3333665728569031 0.013284774497151375
C 5.358885288238525 -1.8557111024856567 2.39265775680542
C 5.420395851135254 -1.8521206378936768 -2.3496665954589844
C 5.952297210693359 2.3046722412109375 0.021656261757016182
C 8.797411918640137 2.2801058292388916 0.046921901404857635
C 10.23915958404541 3.165423631668091 -1.8331477642059326
H 1.1878252029418945 1.1127463579177856 -1.7020574808120728
H 1.1508243083953857 1.1194738149642944 1.64311683177948
H 0.7750333547592163 -1.7511714696884155 -0.02885611727833748
H 4.908223628997803 -0.7956314086914062 4.112705707550049
H 7.372898578643799 -2.326422929763794 2.443453788757324
H 4.311844825744629 -3.641180992126465 2.46350359916687
H 4.983548164367676 -0.803284764289856 -4.080315589904785
H 4.400718688964844 -3.6528027057647705 -2.4328901767730713
H 7.442724227905273 -2.2899134159088135 -2.364652156829834
H 5.3263444900512695 3.367170810699463 1.6905112266540527
H 5.284165382385254 3.3874852657318115 -1.6188149452209473
H 9.713702201843262 1.529223084449768 1.7277766466140747
H 9.422514915466309 3.95149302482605 -3.5425939559936523
H 12.287623405456543 3.115988254547119 -1.697824478149414
