12
Generated by QM7 dataset
C 1.7929344177246094 -0.4033242464065552 0.1636313796043396
C 4.609552383422852 0.11916612833738327 0.011810787953436375
N 5.155910015106201 2.7864956855773926 0.2570216655731201
C 5.07525634765625 4.395843029022217 -1.7714293003082275
O 4.611366271972656 3.80214786529541 -3.953533887863159
H 1.4270267486572266 -2.432852268218994 0.012623370625078678
H 0.7714806795120239 0.5540487766265869 -1.3599225282669067
H 1.0142160654067993 0.2654876112937927 1.9604774713516235
H 5.360888481140137 -0.5674091577529907 -1.7903454303741455
H 5.600505828857422 -0.8550254702568054 1.5436794757843018
H 5.4485907554626465 3.5184810161590576 1.998328685760498
H 5.486952304840088 6.361044883728027 -1.2143946886062622
