13
Generated by QM7 dataset
O 4.567165851593018 -1.1447583436965942 -2.4546220302581787
C 4.379761695861816 -0.05124937370419502 -0.009032891131937504
C 5.434568881988525 2.544421672821045 0.014834349974989891
C 4.114066123962402 4.7885847091674805 0.15127258002758026
O 5.711451530456543 6.7956061363220215 0.14974190294742584
C 8.089312553405762 5.850762367248535 -0.014683172106742859
C 8.028331756591797 3.2553367614746094 -0.1037837564945221
H 3.81197452545166 -2.813594341278076 -2.3458681106567383
H 5.413555145263672 -1.251773476600647 1.3226571083068848
H 2.3863840103149414 -0.03957086428999901 0.5482284426689148
H 2.1260740756988525 5.253023147583008 0.25498074293136597
H 9.590095520019531 7.235780239105225 -0.05472647026181221
H 9.64569091796875 2.0169425010681152 -0.2522406578063965
