12
Generated by QM7 dataset
O 2.1919689178466797 -0.022223180159926414 0.8793651461601257
C 4.420145034790039 0.04514555633068085 0.26510968804359436
C 5.935478687286377 2.4113850593566895 0.07460638880729675
C 8.109173774719238 1.4161229133605957 -1.4879515171051025
O 8.479257583618164 -1.1506353616714478 -0.7080236673355103
C 6.010425090789795 -2.2331459522247314 -0.33285635709762573
H 6.544234752655029 2.958177328109741 1.9719291925430298
H 4.918767929077148 3.941685199737549 -0.8611670732498169
H 7.665125846862793 1.4288030862808228 -3.5115268230438232
H 9.848270416259766 2.491509437561035 -1.1892991065979004
H 5.37863302230835 -3.1334683895111084 -2.0786986351013184
H 6.080174922943115 -3.549661636352539 1.251584529876709
