11
Generated by QM7 dataset
C 1.8350563049316406 0.0691261813044548 -0.012566679157316685
C 4.628166198730469 0.0801243856549263 -0.000925965781789273
N 6.1453328132629395 2.012407064437866 0.008447076193988323
N 8.751075744628906 1.1072282791137695 0.015665829181671143
C 8.763113975524902 -1.334883689880371 0.009807678870856762
C 6.132350444793701 -2.2941465377807617 -0.00173854804597795
O 5.416673183441162 -4.4490580558776855 -0.009637603536248207
H 1.1169037818908691 2.005585193634033 0.004762109834700823
H 1.1400151252746582 -0.9265516400337219 1.6583291292190552
H 1.154547095298767 -0.8911003470420837 -1.7099753618240356
H 10.361387252807617 -2.652268409729004 0.012339911423623562
