13
Generated by QM7 dataset
C 6.158012866973877 -1.9115713834762573 1.0041816234588623
O 4.523928642272949 0.1695273369550705 0.5299547910690308
C 5.633349418640137 2.4160337448120117 0.31596219539642334
C 4.674010753631592 4.792969226837158 -0.1316005289554596
C 6.766844749450684 6.459329605102539 -0.15866141021251678
C 8.865253448486328 4.987591743469238 0.27442604303359985
O 8.19404125213623 2.5268473625183105 0.5652170777320862
H 4.998287677764893 -3.617351531982422 1.1337600946426392
H 7.155013561248779 -1.6772264242172241 2.80338978767395
H 7.502590656280518 -2.168196201324463 -0.5489654541015625
H 2.702686309814453 5.246805667877197 -0.4024549722671509
H 6.749855995178223 8.479767799377441 -0.4563310742378235
H 10.86507511138916 5.379918098449707 0.4243002235889435
