13
Generated by QM7 dataset
C 1.997534990310669 -0.1940748691558838 -0.012075349688529968
C 4.762223243713379 0.17102020978927612 0.0014361918438225985
C 6.298778533935547 2.278820753097534 0.005253438837826252
C 8.81920051574707 1.3758717775344849 0.019501972943544388
C 8.637428283691406 -1.2072515487670898 0.023149145767092705
O 10.281886100769043 -3.0741686820983887 0.03467647358775139
O 6.19760274887085 -1.9718536138534546 0.012226528488099575
H 1.0087357759475708 1.6222920417785645 0.004176294896751642
H 1.4009485244750977 -1.2671747207641602 1.652036428451538
H 1.4133639335632324 -1.2308353185653687 -1.7032668590545654
H 5.677512168884277 4.224898338317871 -0.0013983973767608404
H 10.548564910888672 2.458949327468872 0.026210501790046692
H 9.20961856842041 -4.567581653594971 0.032087549567222595
