13
Generated by QM7 dataset
C 3.5956196784973145 0.8888893723487854 -2.4769396781921387
C 4.8457112312316895 0.49204689264297485 0.06047123670578003
O 4.5172200202941895 -1.4961717128753662 1.2291913032531738
N 6.263232707977295 2.442622184753418 1.0794682502746582
C 8.210084915161133 3.745701789855957 -0.2672450840473175
C 5.867750644683838 5.0644659996032715 0.5589054226875305
H 4.78219747543335 1.963293194770813 -3.776806592941284
H 1.797564148902893 1.8650840520858765 -2.204932451248169
H 3.236722946166992 -0.9541983008384705 -3.3434925079345703
H 8.465217590332031 3.230940341949463 -2.2262675762176514
H 9.92191219329834 3.9815962314605713 0.8258669972419739
H 5.925557613372803 6.234527587890625 2.23441219329834
H 4.434072494506836 5.536576271057129 -0.8156813979148865
