14
Generated by QM7 dataset
C 2.400254487991333 -0.49287837743759155 0.8605812788009644
C 5.1575541496276855 0.10979308933019638 0.32357779145240784
O 5.596537113189697 -0.2603664696216583 -2.3129491806030273
N 8.20759105682373 -0.43348428606987 -2.756316661834717
C 8.57140064239502 -0.7118787169456482 -5.151771545410156
C 5.806674957275391 2.822570562362671 0.9944306015968323
O 4.414910316467285 4.273369789123535 2.159900188446045
H 1.9376306533813477 -0.21100682020187378 2.8571524620056152
H 1.9762189388275146 -2.454395294189453 0.354059100151062
H 1.144248127937317 0.7033371925354004 -0.271591454744339
H 6.372175216674805 -1.1494258642196655 1.4338864088058472
H 10.507387161254883 -0.8727133274078369 -5.895416259765625
H 7.0139641761779785 -0.7918708324432373 -6.534729480743408
H 7.730378150939941 3.428567886352539 0.46581748127937317
