15
Generated by QM7 dataset
C 2.0468757152557373 -0.19919602572917938 -0.349089115858078
C 4.866573810577393 0.38013729453086853 -0.4882863461971283
C 6.180727481842041 -1.7107312679290771 -1.9274450540542603
O 7.680111408233643 -1.37968909740448 -3.671548843383789
C 5.240116119384766 3.030818462371826 -1.5313395261764526
N 5.753913879394531 3.4212357997894287 -4.0198445320129395
N 5.018885612487793 4.999629497528076 -0.09233202040195465
H 1.0599663257598877 1.1889967918395996 0.8260748982429504
H 1.7087281942367554 -2.074352264404297 0.458617627620697
H 1.181173324584961 -0.15954957902431488 -2.229498863220215
H 5.652511119842529 0.33759957551956177 1.4297101497650146
H 5.795090675354004 -3.643845558166504 -1.2431185245513916
H 6.824519157409668 2.0477261543273926 -4.857314109802246
H 6.424218654632568 5.187317371368408 -4.349847316741943
H 4.586365222930908 4.494278907775879 1.7256600856781006
