15
Generated by QM7 dataset
C 1.6169441938400269 -0.004289678297936916 -0.006103815510869026
C 4.439061164855957 0.015968184918165207 -0.007899055257439613
C 6.078587532043457 2.061105489730835 -0.0023243632167577744
C 5.299170017242432 4.773410320281982 0.007237650919705629
C 8.659821510314941 1.2346714735031128 -0.007407726254314184
C 8.885756492614746 -1.3549525737762451 -0.016572898253798485
S 6.014223575592041 -2.815011739730835 -0.019369693472981453
H 0.8437438011169434 1.9131587743759155 0.016913048923015594
H 0.8948798179626465 -0.9910479784011841 1.6633936166763306
H 0.8934436440467834 -0.9519873261451721 -1.697389841079712
H 6.9439496994018555 6.028642177581787 0.016667384654283524
H 4.167110919952393 5.194139003753662 1.687242031097412
H 4.1754255294799805 5.207952976226807 -1.6748265027999878
H 10.278277397155762 2.489260673522949 -0.004573137033730745
H 10.605010986328125 -2.4591195583343506 -0.021883029490709305
