21
Generated by QM7 dataset
C 5.424080848693848 -1.5163540840148926 -2.178514003753662
C 4.620474815368652 -0.07218753546476364 0.1745351105928421
C 5.602829933166504 2.6699562072753906 0.2495950311422348
C 4.531033992767334 4.00501012802124 2.5867326259613037
C 8.501708030700684 2.8538455963134766 0.2235357016324997
O 9.54065990447998 1.4691675901412964 2.2880804538726807
C 12.222521781921387 1.5873321294784546 2.315424680709839
H 4.507752895355225 -3.3711013793945312 -2.2173478603363037
H 7.466799259185791 -1.8318438529968262 -2.2156472206115723
H 4.883203506469727 -0.4999648332595825 -3.8964829444885254
H 5.244386672973633 -1.1107053756713867 1.8541237115859985
H 2.5481255054473877 -0.043558187782764435 0.2361023873090744
H 4.891215801239014 3.668865442276001 -1.4249101877212524
H 5.126808166503906 3.0741307735443115 4.335334300994873
H 2.4620864391326904 4.01032018661499 2.5411336421966553
H 5.161276817321777 5.974142551422119 2.659902811050415
H 9.077110290527344 4.839588642120361 0.3719170093536377
H 9.252458572387695 2.1109373569488525 -1.557379961013794
H 12.906319618225098 0.5004372596740723 3.9344475269317627
H 12.859964370727539 3.5445215702056885 2.517568826675415
H 13.00167465209961 0.7586683630943298 0.5879882574081421
