15
Generated by QM7 dataset
N 1.874532699584961 0.08501877635717392 0.13855472207069397
C 4.636159420013428 0.11776773631572723 0.006406171713024378
C 5.778026580810547 2.237492322921753 1.6045664548873901
C 8.334428787231445 1.182137131690979 2.369962215423584
N 7.885354518890381 -1.4763485193252563 2.590909004211426
C 5.811663627624512 -2.2411208152770996 1.1968580484390259
O 5.136540412902832 -4.426116466522217 0.9016072154045105
H 1.2662866115570068 -1.6384871006011963 -0.4910453259944916
H 1.1521282196044922 1.395808458328247 -1.0693392753601074
H 5.282389163970947 0.22109796106815338 -1.9585877656936646
H 4.638672828674316 2.569819688796997 3.3076255321502686
H 5.922250747680664 4.030180931091309 0.5841332674026489
H 9.761021614074707 1.478068232536316 0.9019851684570312
H 9.012331008911133 1.9397094249725342 4.166921615600586
H 9.038540840148926 -2.760927677154541 3.4169838428497314
