17
Generated by QM7 dataset
C 4.020335674285889 -2.0029397010803223 -0.6550924777984619
N 6.6494550704956055 -1.2155474424362183 -0.4167602062225342
N 7.032597064971924 1.30837082862854 -0.2882210314273834
C 9.357073783874512 2.0628817081451416 0.021013755351305008
C 11.623100280761719 0.35052528977394104 0.3002396821975708
C 9.822872161865234 4.8956379890441895 0.15892596542835236
O 9.735698699951172 5.7028913497924805 2.7127773761749268
H 3.902397871017456 -4.068126678466797 -0.6333606243133545
H 3.202670097351074 -1.3217689990997314 -2.429753065109253
H 2.891073226928711 -1.2850704193115234 0.9212793111801147
H 7.670511722564697 -2.0272982120513916 -1.8425586223602295
H 11.198271751403809 -1.231950283050537 1.560592532157898
H 13.21610164642334 1.3976414203643799 1.0996882915496826
H 12.1639404296875 -0.36723047494888306 -1.5594209432601929
H 8.38240909576416 5.913538932800293 -0.9197297096252441
H 11.679811477661133 5.345373630523682 -0.6266898512840271
H 8.04968547821045 5.266969203948975 3.3204188346862793
