19
Generated by QM7 dataset
C 4.363585472106934 -0.8276433348655701 -2.7297472953796387
C 4.717436790466309 0.04932185262441635 -0.0030991509556770325
N 6.096993446350098 -1.8784444332122803 1.4261195659637451
C 6.169880390167236 2.5355210304260254 0.05589810013771057
C 4.775224685668945 4.9140625 -0.9113582372665405
N 5.961670398712158 6.370059013366699 1.1655453443527222
C 6.220770359039307 3.973527193069458 2.5998852252960205
H 3.276444911956787 0.5606439709663391 -3.81526255607605
H 3.339901924133301 -2.625736713409424 -2.808303117752075
H 6.181332111358643 -1.0783344507217407 -3.6921091079711914
H 2.8535242080688477 0.29069656133651733 0.8674976825714111
H 7.756248474121094 -2.292067766189575 0.5379483103752136
H 5.086764812469482 -3.5200307369232178 1.427725911140442
H 8.069168090820312 2.3622710704803467 -0.7785104513168335
H 2.708638906478882 4.84227180480957 -0.7774333357810974
H 5.292045593261719 5.541244029998779 -2.8121960163116455
H 7.665258407592773 7.131618499755859 0.6780526638031006
H 7.970089912414551 3.8030738830566406 3.6883673667907715
H 4.6174702644348145 3.602630615234375 3.8594822883605957
