14
Generated by QM7 dataset
N 3.2118918895721436 -1.1752585172653198 1.2745825052261353
C 5.437346935272217 -0.871636152267456 -0.010261212475597858
O 6.559164047241211 -2.7016091346740723 -0.8901932835578918
C 6.316031455993652 1.9194514751434326 -0.2757299542427063
O 5.097328186035156 3.482595205307007 1.557002067565918
C 9.147256851196289 2.1423826217651367 -0.062115296721458435
C 10.447540283203125 3.895613670349121 1.226413369178772
H 2.1581616401672363 0.3566291034221649 1.7344473600387573
H 2.450162172317505 -2.922877311706543 1.380501627922058
H 5.713832855224609 2.558519124984741 -2.1498091220855713
H 5.808829307556152 2.9835941791534424 3.1801257133483887
H 10.216275215148926 0.7215163111686707 -1.1022772789001465
H 9.52049732208252 5.410852909088135 2.2528560161590576
H 12.50008487701416 3.8790218830108643 1.2286053895950317
