19
Generated by QM7 dataset
C 2.352633476257324 -0.6779014468193054 0.1896529197692871
C 5.197049140930176 -1.0484766960144043 0.0033826096914708614
C 6.5786848068237305 1.4850224256515503 -0.19269537925720215
C 9.41342544555664 1.1568903923034668 -0.35468268394470215
C 10.622528076171875 1.2119191884994507 -2.5881876945495605
C 10.808175086975098 0.7878835201263428 2.0950071811676025
O 10.607354164123535 3.022390127182007 3.5691256523132324
H 1.3959406614303589 -2.5091028213500977 0.2741803526878357
H 1.628150224685669 0.3502040505409241 -1.451819896697998
H 1.8564670085906982 0.3851450979709625 1.893864631652832
H 5.61802339553833 -2.211811065673828 -1.6593685150146484
H 5.848229885101318 -2.10394549369812 1.663771629333496
H 6.10460901260376 2.683392286300659 1.4289164543151855
H 5.892033576965332 2.5040950775146484 -1.864687204360962
H 9.602662086486816 1.473419427871704 -4.35067892074585
H 12.657669067382812 0.9785757660865784 -2.720865488052368
H 12.817671775817871 0.3989967703819275 1.7956933975219727
H 10.017891883850098 -0.7890362739562988 3.1729636192321777
H 11.027799606323242 4.422450542449951 2.4549810886383057
