21
Generated by QM7 dataset
C 2.840711832046509 -0.7879779934883118 1.3623414039611816
O 5.357052326202393 0.11532998830080032 1.608138084411621
C 5.738701343536377 2.5927798748016357 0.5865142941474915
C 4.438305377960205 4.592469215393066 2.2194645404815674
C 8.615903854370117 3.0813119411468506 0.3619392514228821
C 9.998598098754883 2.9307572841644287 2.9014854431152344
C 9.825479507446289 1.2109743356704712 -1.4925624132156372
H 2.8149170875549316 -2.777519464492798 1.9189412593841553
H 2.190854072570801 -0.6473634839057922 -0.5954338312149048
H 1.5664317607879639 0.2444549798965454 2.6187636852264404
H 4.9312214851379395 2.666592597961426 -1.3232240676879883
H 4.859544277191162 4.322011470794678 4.226051330566406
H 2.3821699619293213 4.464118957519531 2.0283942222595215
H 4.996568202972412 6.5026044845581055 1.6575732231140137
H 8.893126487731934 4.988158702850342 -0.4057241976261139
H 9.778255462646484 1.0730432271957397 3.7829670906066895
H 9.299323081970215 4.36003303527832 4.223046779632568
H 12.024138450622559 3.2735915184020996 2.647752046585083
H 9.688815116882324 -0.737163245677948 -0.8118263483047485
H 11.831178665161133 1.6478790044784546 -1.764229416847229
H 8.9058256149292 1.313662052154541 -3.3423964977264404
