15
Generated by QM7 dataset
C 1.874173641204834 -0.2293938547372818 -0.14617031812667847
C 4.730192184448242 -0.024339672178030014 0.14025548100471497
C 5.720938205718994 2.707637310028076 0.0
C 4.737014293670654 4.342817306518555 2.1736953258514404
C 8.449702262878418 2.707637310028076 0.0
N 10.624795913696289 2.707637310028076 0.0
H 1.3125659227371216 -2.2191243171691895 -0.22557660937309265
H 1.2338777780532837 0.6852713823318481 -1.8874396085739136
H 0.8859602808952332 0.6323779821395874 1.4516687393188477
H 5.609236240386963 -1.14997398853302 -1.3641365766525269
H 5.296108722686768 -0.9037804007530212 1.9308087825775146
H 5.062689781188965 3.5506632328033447 -1.7769662141799927
H 5.228645324707031 3.528779983520508 4.012398719787598
H 2.682579517364502 4.55138635635376 2.0894134044647217
H 5.552582263946533 6.2449212074279785 2.0953471660614014
