17
Generated by QM7 dataset
O 5.284883499145508 3.4162468910217285 -3.028512954711914
C 4.332329273223877 2.9715566635131836 -0.9645918011665344
C 5.689852237701416 1.7237136363983154 1.204643726348877
C 8.435094833374023 1.071436882019043 0.6670166254043579
C 10.351522445678711 3.293773651123047 0.5914275646209717
C 12.261582374572754 1.5100990533828735 1.8797483444213867
C 9.975202560424805 0.04799904301762581 2.9423604011535645
H 2.342693567276001 3.475830078125 -0.5874024629592896
H 4.638521671295166 -0.0012472192756831646 1.6634503602981567
H 5.540752410888672 2.995669364929199 2.833682060241699
H 8.608930587768555 -0.17249420285224915 -0.9877976179122925
H 9.82529067993164 4.924777507781982 1.7577476501464844
H 10.882044792175293 3.9586739540100098 -1.2905317544937134
H 13.40694522857666 0.41347208619117737 0.5490788221359253
H 13.50245189666748 2.3811304569244385 3.2821898460388184
H 10.189932823181152 -2.0046215057373047 3.0276057720184326
H 9.341804504394531 0.7344987392425537 4.792874813079834
