15
Generated by QM7 dataset
N 1.5529769659042358 0.1736847311258316 0.18564669787883759
C 4.308424472808838 0.35704484581947327 0.2917926013469696
C 5.355162620544434 3.0299301147460938 0.2876919209957123
C 3.8882248401641846 5.1099138259887695 0.3616179823875427
C 8.094169616699219 3.372972249984741 0.20701949298381805
C 9.848288536071777 1.546249508857727 0.17670829594135284
H 1.0570560693740845 -1.6838215589523315 0.24836669862270355
H 0.9731144905090332 0.8184592723846436 -1.5337584018707275
H 5.06558084487915 -0.6830226182937622 -1.3326727151870728
H 4.943089008331299 -0.6081705689430237 2.010498523712158
H 1.8432199954986572 4.97770881652832 0.4613199532032013
H 4.668643951416016 7.006462097167969 0.36452817916870117
H 8.768121719360352 5.318785190582275 0.18156488239765167
H 9.395472526550293 -0.4494902491569519 0.21130917966365814
H 11.840664863586426 2.0389955043792725 0.12581796944141388
