19
Generated by QM7 dataset
C 2.0945725440979004 0.017234303057193756 -0.2056400030851364
C 4.911360263824463 0.12026216834783554 -0.22398923337459564
C 6.379998683929443 -1.0585678815841675 -2.3569610118865967
C 6.399406433105469 1.7929154634475708 -2.0375404357910156
C 5.0062055587768555 3.370987892150879 -3.963700532913208
C 8.769387245178223 3.025451421737671 -1.0265558958053589
O 10.602516174316406 3.1845476627349854 -2.980532646179199
H 1.3264743089675903 1.7267372608184814 0.6674512624740601
H 1.4598134756088257 -1.6083648204803467 0.9044985175132751
H 1.287338137626648 -0.16901710629463196 -2.0991833209991455
H 5.650073051452637 -0.10971749573945999 1.6766784191131592
H 5.3460540771484375 -1.8594149351119995 -3.936393976211548
H 8.063253402709961 -2.1226160526275635 -1.8699028491973877
H 3.4646239280700684 2.3338873386383057 -4.869975566864014
H 6.287629127502441 3.987057685852051 -5.465276718139648
H 4.208457946777344 5.052957534790039 -3.0627169609069824
H 9.594517707824707 1.9573216438293457 0.541576623916626
H 8.364249229431152 4.938175678253174 -0.3489757180213928
H 10.77863883972168 1.4929780960083008 -3.6746668815612793
