17
Generated by QM7 dataset
C 9.64380168914795 -0.6333417296409607 -0.8650410175323486
O 7.017913818359375 -0.07112929224967957 -1.0139703750610352
C 6.253141403198242 2.2527992725372314 -0.16648487746715546
C 7.651009559631348 4.159589767456055 0.7495787739753723
C 6.677536487579346 6.579062461853027 1.6356902122497559
C 3.8712363243103027 7.041535377502441 1.655211091041565
C 8.288130760192871 8.368142127990723 2.4427545070648193
H 9.928092002868652 -2.5449318885803223 -1.5974799394607544
H 10.294282913208008 -0.5990809798240662 1.098289966583252
H 10.748517036437988 0.6682260632514954 -2.0329673290252686
H 4.214278221130371 2.3456413745880127 -0.3549661636352539
H 9.691441535949707 3.943726062774658 0.8660237193107605
H 3.0974879264831543 6.94856071472168 -0.2623506784439087
H 3.4022252559661865 8.91019058227539 2.416184902191162
H 2.9052271842956543 5.643100261688232 2.8367812633514404
H 10.320549964904785 8.089841842651367 2.4545652866363525
H 7.612364768981934 10.183904647827148 3.118501663208008
