11
Generated by QM7 dataset
C 2.009005546569824 0.037133120000362396 0.009769883938133717
C 4.8244709968566895 -0.0859825387597084 0.00582035630941391
N 6.103796482086182 -2.1850147247314453 -0.0012094246922060847
C 8.55656623840332 -1.3661586046218872 -0.0010015548905357718
O 10.508842468261719 -2.572805404663086 -0.006330582778900862
C 8.507376670837402 1.453161597251892 0.007483315654098988
N 6.181332111358643 2.161733388900757 0.011584021151065826
H 1.2036232948303223 -1.864743947982788 -0.008201410993933678
H 1.3645334243774414 1.0672417879104614 -1.6611260175704956
H 1.368331789970398 1.0338125228881836 1.7022842168807983
H 10.269584655761719 2.5426454544067383 0.009316349402070045
