18
Generated by QM7 dataset
C 3.5292904376983643 0.3180031180381775 -1.4086962938308716
N 3.371328115463257 -0.09733979403972626 1.3069535493850708
C 0.9985501766204834 0.06555459648370743 -0.10610812157392502
C -0.6713252067565918 2.339632034301758 0.2986901104450226
C -3.326447010040283 1.365364909172058 -0.30647578835487366
C -3.221076011657715 -1.4174647331237793 0.43458032608032227
C -0.6077359318733215 -2.2561440467834473 -0.46921899914741516
H 4.159740924835205 2.1771345138549805 -1.9891446828842163
H 4.235707759857178 -1.238167405128479 -2.5343117713928223
H 3.7962329387664795 -1.9261033535003662 1.7538548707962036
H -0.5785018801689148 2.9647536277770996 2.2713940143585205
H -0.17166271805763245 3.9328601360321045 -0.9225832223892212
H -4.7946319580078125 2.406604051589966 0.7091764211654663
H -3.6977782249450684 1.536574125289917 -2.338139295578003
H -4.7420220375061035 -2.528925895690918 -0.4148704707622528
H -3.351334810256958 -1.6014484167099 2.4950432777404785
H -0.6786573529243469 -2.7531421184539795 -2.478923797607422
H 0.059998806565999985 -3.900942802429199 0.5917110443115234
