17
Generated by QM7 dataset
C 2.103227376937866 0.18445616960525513 -1.047059416770935
N 4.8479790687561035 0.01797129586338997 -0.9674075245857239
C 5.901803493499756 1.9247806072235107 0.7218564748764038
C 8.713659286499023 1.6026955842971802 0.7062284350395203
C 10.326200485229492 2.917642593383789 -1.2431941032409668
C 10.409537315368652 3.7606682777404785 1.4698479175567627
H 1.3594311475753784 -1.2855240106582642 -2.2975478172302246
H 1.4744398593902588 2.016772508621216 -1.774452805519104
H 1.2787399291992188 -0.11871259659528732 0.826471745967865
H 5.555076599121094 0.295024037361145 -2.73738169670105
H 5.2089924812316895 1.6505624055862427 2.6537234783172607
H 5.370847225189209 3.8302102088928223 0.10431288182735443
H 9.27241325378418 -0.2759189009666443 1.3118857145309448
H 9.419377326965332 4.153844833374023 -2.6010191440582275
H 11.94189739227295 1.8996282815933228 -1.9845526218414307
H 12.085101127624512 3.314995288848877 2.5620150566101074
H 9.558612823486328 5.562692165374756 1.9425439834594727
