14
Generated by QM7 dataset
C 5.012687683105469 -2.224226474761963 0.6698134541511536
C 4.176313877105713 0.13944289088249207 0.31902357935905457
C 5.706424713134766 2.3516886234283447 0.1813759207725525
C 4.751017093658447 4.748258113861084 -0.182094007730484
N 6.73817777633667 6.411689758300781 -0.21699725091457367
C 8.952256202697754 5.113239765167236 0.11901494860649109
C 8.369483947753906 2.5874319076538086 0.3717091381549835
H 3.6925437450408936 -3.7911875247955322 0.7477457523345947
H 7.002512454986572 -2.662208318710327 0.8861681818962097
H 2.1452548503875732 0.4014723300933838 0.12035665661096573
H 2.8360064029693604 5.422342300415039 -0.41934913396835327
H 6.59070348739624 8.303230285644531 -0.45408228039741516
H 10.746834754943848 6.090776443481445 0.14987418055534363
H 9.730956077575684 1.0900884866714478 0.6614419221878052
