13
Generated by QM7 dataset
N 1.889726161956787 0.0 0.0
C 4.064819812774658 0.0 0.0
C 6.79358434677124 0.0 0.0
N 7.895559310913086 -2.3202056884765625 1.167567253112793
C 8.726414680480957 -1.6018640995025635 3.731736660003662
C 8.87572193145752 1.1978029012680054 3.695359468460083
C 7.795592784881592 2.1029062271118164 1.6045664548873901
H 7.519087791442871 0.18016648292541504 -1.9306764602661133
H 9.472403526306152 -2.7668614387512207 0.1576787531375885
H 10.560148239135742 -2.4564929008483887 4.159627437591553
H 7.351072311401367 -2.2422168254852295 5.1378631591796875
H 9.677382469177246 2.3240418434143066 5.20026159286499
H 7.595810890197754 4.083716869354248 1.1430197954177856
