14
Generated by QM7 dataset
C 2.6683123111724854 0.28204163908958435 -2.802860736846924
C 4.921640396118164 0.43221816420555115 -1.6823097467422485
O 6.48397159576416 2.4677555561065674 -2.033194065093994
C 8.803478240966797 2.2453536987304688 -0.6220033764839172
C 10.969860076904297 0.9520817995071411 -1.9336433410644531
C 10.974848747253418 3.772611379623413 -1.6408870220184326
H 1.4541254043579102 -1.3425748348236084 -2.516737222671509
H 2.0048482418060303 1.7848652601242065 -4.0293684005737305
H 5.645273208618164 -1.0326030254364014 -0.45495155453681946
H 8.678624153137207 2.1074414253234863 1.4229071140289307
H 10.642219543457031 0.1838136613368988 -3.803527355194092
H 12.265229225158691 -0.13931061327457428 -0.7853512763977051
H 12.275282859802246 4.600670337677002 -0.2945327162742615
H 10.644562721252441 4.914308547973633 -3.308891534805298
