20
Generated by QM7 dataset
C 1.8345460891723633 0.016327233985066414 0.06302236765623093
C 4.702073097229004 0.06224757805466652 0.05939409136772156
C 5.82464599609375 2.134974718093872 1.7023786306381226
C 8.500838279724121 1.1838756799697876 2.0946102142333984
N 8.149406433105469 -1.5295253992080688 2.522935628890991
C 10.401298522949219 -2.98644757270813 1.9080753326416016
C 5.909041404724121 -2.3497610092163086 1.0952852964401245
H 1.128960132598877 -1.5363095998764038 -1.110384225845337
H 1.0762934684753418 1.7871328592300415 -0.6954002976417542
H 1.0793359279632568 -0.23345676064491272 1.9750850200653076
H 5.358998775482178 0.3438545763492584 -1.8889702558517456
H 4.827059745788574 2.285585880279541 3.51438045501709
H 5.777932167053223 3.983769416809082 0.7753735184669495
H 9.628778457641602 1.5565106868743896 0.3938756287097931
H 9.41253662109375 2.0987110137939453 3.7083418369293213
H 10.107010841369629 -4.988971710205078 2.341956377029419
H 12.008718490600586 -2.351027250289917 3.0454258918762207
H 10.914301872253418 -2.8233642578125 -0.0911225974559784
H 6.353958606719971 -3.6445446014404297 -0.4620758295059204
H 4.637028694152832 -3.3443050384521484 2.391486167907715
