20
Generated by QM7 dataset
C 1.574633240699768 -0.12889821827411652 -0.04964310675859451
C 4.385411739349365 -0.4302717447280884 -0.6506326794624329
C 4.761788368225098 -1.1691546440124512 -3.419138193130493
C 5.886704921722412 1.9360432624816895 0.053592633455991745
C 5.283598899841309 4.33726167678833 -1.3634374141693115
C 6.758586406707764 2.1869611740112305 2.7740046977996826
N 8.542695999145508 1.5264263153076172 0.7868819832801819
H 1.2959741353988647 0.42373329401016235 1.925215244293213
H 0.5675414204597473 -1.9100595712661743 -0.3616179823875427
H 0.6857438087463379 1.3112620115280151 -1.2400004863739014
H 5.0788655281066895 -2.0178306102752686 0.4951082468032837
H 3.95882511138916 0.23905035853385925 -4.704983234405518
H 3.843759536743164 -2.9803249835968018 -3.820610523223877
H 6.77298641204834 -1.3614153861999512 -3.8673055171966553
H 6.424388408660889 5.932738304138184 -0.696571946144104
H 3.299556255340576 4.862000942230225 -1.1143337488174438
H 5.657840251922607 4.118412494659424 -3.3851609230041504
H 6.306356430053711 0.6943420767784119 4.101121425628662
H 6.952680587768555 4.047774314880371 3.6043503284454346
H 9.64100456237793 3.0382637977600098 0.30331993103027344
