13
Generated by QM7 dataset
O 2.0756940841674805 -0.27860233187675476 0.05200526490807533
C 4.62330961227417 -0.4975270926952362 0.11754096299409866
O 5.678475856781006 -2.5370140075683594 0.3264501988887787
C 5.932474136352539 2.0216290950775146 -0.09490204602479935
C 8.795257568359375 1.7134902477264404 -0.01617605611681938
C 10.060523986816406 4.178411483764648 -0.24819663166999817
C 11.104578971862793 6.183788776397705 -0.43985265493392944
H 1.4775768518447876 1.457829236984253 -0.12084798514842987
H 5.3031005859375 3.2194886207580566 1.47394859790802
H 5.360737323760986 2.9057374000549316 -1.8792192935943604
H 9.420624732971191 0.4673670530319214 -1.549462080001831
H 9.364727020263672 0.8059114813804626 1.7578799724578857
H 12.04594612121582 7.956578731536865 -0.6103059649467468
