16
Generated by QM7 dataset
C 2.9661519527435303 -0.9489259719848633 -2.0711021423339844
N 5.511575222015381 -0.608586311340332 -1.0680921077728271
N 6.208695411682129 1.8186724185943604 -0.6705881953239441
C 8.572912216186523 2.1968443393707275 -0.11415835469961166
C 10.555953025817871 0.15163162350654602 0.07175289839506149
C 9.421380996704102 4.877383232116699 0.35802751779556274
H 2.6013214588165283 -2.959651231765747 -2.3871965408325195
H 2.755542039871216 0.028232509270310402 -3.882347822189331
H 1.5464574098587036 -0.22737184166908264 -0.7513551115989685
H 5.662224292755127 -1.6433058977127075 0.5569211840629578
H 10.049734115600586 -1.1855196952819824 1.5642775297164917
H 12.396584510803223 0.9752687811851501 0.5271391272544861
H 10.710022926330566 -0.8418163061141968 -1.7343717813491821
H 7.829097747802734 6.1862640380859375 0.21731850504875183
H 10.849163055419922 5.395905017852783 -1.0422217845916748
H 10.241294860839844 5.011402606964111 2.249624490737915
