17
Generated by QM7 dataset
N 4.456219673156738 -1.1510132551193237 2.1793267726898193
C 4.249313831329346 0.2075486183166504 -0.21308551728725433
C 5.441636562347412 2.798325300216675 -0.02942303568124771
C 3.995051145553589 4.886038303375244 -0.19131587445735931
C 8.205719947814941 2.834381341934204 0.3350295424461365
C 9.898914337158203 2.3909947872161865 -1.9148783683776855
N 9.682502746582031 4.890554428100586 -0.7868252992630005
H 3.539419174194336 -2.8352506160736084 2.016810178756714
H 3.500396490097046 -0.15631814301013947 3.5245282649993896
H 2.249208688735962 0.33790192008018494 -0.7382026314735413
H 5.185503005981445 -0.8842217326164246 -1.7029078006744385
H 1.966354489326477 4.790644645690918 -0.4596191942691803
H 4.839418411254883 6.753087520599365 -0.06939074397087097
H 8.8455810546875 2.157273530960083 2.16324520111084
H 9.05997085571289 2.1809329986572266 -3.769568920135498
H 11.66174602508545 1.394844651222229 -1.626449465751648
H 11.20312786102295 5.28717041015625 0.33085325360298157
