16
Generated by QM7 dataset
C 1.891540288925171 -0.10151609033346176 0.004478651098906994
C 4.762109756469727 0.0 0.0
C 5.672995567321777 2.5722384452819824 0.0
C 6.423746109008789 4.692322254180908 0.0
C 7.33463191986084 7.264560699462891 0.0
C 5.187430381774902 9.143363952636719 -0.3423427939414978
H 1.2420413494110107 -2.0654895305633545 0.0042140893638134
H 1.1065480709075928 0.8351077437400818 -1.666757345199585
H 1.1118581295013428 0.8328967690467834 1.6793996095657349
H 5.472514629364014 -1.0071295499801636 -1.6640172004699707
H 5.477787017822266 -1.0090382099151611 1.6605968475341797
H 8.71696662902832 7.531371116638184 -1.5184705257415771
H 8.313604354858398 7.672590255737305 1.7784779071807861
H 4.2106122970581055 8.841329574584961 -2.141796588897705
H 5.918376445770264 11.078198432922363 -0.3248628079891205
H 3.7917544841766357 8.968810081481934 1.1748238801956177
