10
Generated by QM7 dataset
N 1.9917713403701782 -0.5583195686340332 0.0
C 4.527235984802246 -0.07188518345355988 0.0
C 5.7703166007995605 2.150489330291748 0.0
C 4.441839218139648 4.451476573944092 0.0
N 3.354301691055298 6.335174560546875 0.0
C 8.427271842956543 2.150489330291748 0.0
N 10.602365493774414 2.150489330291748 0.0
H 1.3496991395950317 -2.369187355041504 -0.0
H 0.691828727722168 0.8589372038841248 -0.0
H 5.609349727630615 -1.8288580179214478 0.0
