11
Generated by QM7 dataset
O 4.98286771774292 -2.0269391536712646 0.1323186308145523
C 4.0320329666137695 0.0902344211935997 0.018198063597083092
C 5.459191799163818 2.4035048484802246 -0.01126276794821024
N 4.451023101806641 4.680322647094727 -0.13343356549739838
C 6.455474376678467 6.326160430908203 -0.11619926244020462
C 8.706554412841797 5.037008285522461 0.01787680946290493
N 8.046245574951172 2.5412471294403076 0.08362038433551788
H 1.9621026515960693 0.3231809735298157 -0.07026001811027527
H 6.17044734954834 8.35068130493164 -0.20121803879737854
H 10.651951789855957 5.656819820404053 0.07035450637340546
H 9.213113784790039 1.02903151512146 0.18398374319076538
