17
Generated by QM7 dataset
C 1.9112879037857056 0.01797129586338997 0.032673366367816925
C 4.785580158233643 -0.0472242571413517 -0.2217026650905609
O 5.441995620727539 -2.231502056121826 -1.743253469467163
C 6.183486461639404 -1.2181930541992188 -4.022830009460449
C 6.424105167388916 1.2777761220932007 -4.1023688316345215
C 5.844110488891602 2.318467140197754 -1.5580036640167236
C 8.229719161987305 3.3194739818573 -0.2849329113960266
H 1.3002638816833496 1.6161693334579468 1.1934754848480225
H 1.229814887046814 -1.73206627368927 0.9039505124092102
H 0.993107795715332 0.15248200297355652 -1.8185778856277466
H 5.616568565368652 -0.3063434958457947 1.6586315631866455
H 6.538490295410156 -2.5795328617095947 -5.493849754333496
H 7.019482135772705 2.363896131515503 -5.72303581237793
H 4.437379360198975 3.833574056625366 -1.660370111465454
H 9.696808815002441 1.8638558387756348 -0.139896422624588
H 7.805759429931641 3.9831459522247314 1.6289061307907104
H 9.021080017089844 4.909791946411133 -1.3490943908691406
