15
Generated by QM7 dataset
C 1.889726161956787 0.0 0.0
C 4.618490695953369 0.0 0.0
C 6.86756706237793 0.0 0.0
C 9.596331596374512 0.0 0.0
C 10.630257606506348 -1.3897991180419922 -2.307979106903076
N 10.52035140991211 2.600848913192749 0.03771893307566643
H 1.1451740264892578 1.9291647672653198 0.02201530896127224
H 1.1450417041778564 -0.9836969375610352 1.6596142053604126
H 1.1452118158340454 -0.9454488754272461 -1.6817806959152222
H 10.288046836853027 -0.9508345723152161 1.7045329809188843
H 10.001280784606934 -0.5154795050621033 -4.078142166137695
H 9.987996101379395 -3.359611749649048 -2.327972412109375
H 12.700528144836426 -1.4055594205856323 -2.302574634552002
H 9.88991928100586 3.5071616172790527 -1.5395787954330444
H 12.438309669494629 2.5975420475006104 -0.07061906903982162
