20
Generated by QM7 dataset
C 1.7929154634475708 -0.39336538314819336 0.11752206832170486
C 4.642320156097412 -0.6149546504020691 0.42698362469673157
C 5.969606876373291 1.876857042312622 -0.21686497330665588
C 8.869278907775879 1.6977488994598389 -0.04261332377791405
N 10.007290840148926 4.066803932189941 -0.8997930884361267
C 9.773965835571289 1.1996926069259644 2.602682113647461
C 11.115747451782227 -0.8326322436332703 3.299140691757202
H 0.8801777362823486 -2.191401958465576 0.5788419842720032
H 1.292799472808838 0.09919172525405884 -1.828574538230896
H 1.0223796367645264 1.0585111379623413 1.374057650566101
H 5.343257427215576 -2.122786045074463 -0.8081603050231934
H 5.05560302734375 -1.172480583190918 2.377218723297119
H 5.265532970428467 3.3708746433258057 1.040596604347229
H 5.438518524169922 2.428562641143799 -2.1460485458374023
H 9.523029327392578 0.19209066033363342 -1.3088998794555664
H 9.23992919921875 5.537388801574707 0.07555124908685684
H 9.539923667907715 4.358728885650635 -2.7436366081237793
H 9.299701690673828 2.5971639156341553 4.033696174621582
H 11.660120010375977 -2.2762885093688965 1.9479485750198364
H 11.721611976623535 -1.0721549987792969 5.243801116943359
