20
Generated by QM7 dataset
C 1.7238271236419678 -0.180525541305542 -0.15924721956253052
C 4.583492755889893 0.08630379289388657 0.11926061660051346
N 5.876348972320557 -1.397263526916504 -1.8688257932662964
C 5.571177005767822 2.868377447128296 0.1012137308716774
C 4.834920883178711 4.36224365234375 -2.267104387283325
C 4.747918128967285 4.311807155609131 2.4671318531036377
O 8.287620544433594 2.7497971057891846 0.1476632058620453
H 0.7272611260414124 0.8380179405212402 1.3387008905410767
H 1.1615957021713257 -2.1692545413970947 -0.02452864497900009
H 1.0518782138824463 0.5314666032791138 -1.9824928045272827
H 5.148728847503662 -0.7747688293457031 1.9197349548339844
H 5.209842681884766 -0.8671953082084656 -3.6004951000213623
H 5.378689765930176 -3.252880096435547 -1.6820452213287354
H 5.51189661026001 3.437978744506836 -3.9903833866119385
H 5.7172532081604 6.237173557281494 -2.2460718154907227
H 2.7891411781311035 4.622005462646484 -2.4148054122924805
H 5.3207316398620605 3.3016161918640137 4.1818318367004395
H 2.7021005153656006 4.603089332580566 2.5278677940368652
H 5.667477607727051 6.166252136230469 2.5540027618408203
H 8.695858001708984 1.2257142066955566 -0.8259047865867615
