13
Generated by QM7 dataset
C -0.8743385076522827 2.612470865249634 -0.39682358503341675
O -2.934574604034424 0.9065961241722107 -0.21195168793201447
C -2.316539764404297 -1.5999743938446045 -0.9576376080513
C -0.44132664799690247 -2.6149840354919434 0.9060670137405396
N 1.9098706245422363 -1.932849645614624 1.069736123085022
N 2.88812518119812 -0.33002176880836487 -0.7768475413322449
C 1.6967283487319946 1.741307020187378 -1.3441810607910156
H -0.6078870892524719 3.5414979457855225 1.429880142211914
H -1.4839640855789185 4.091030120849609 -1.7088037729263306
H -1.6078356504440308 -1.6498064994812012 -2.8953628540039062
H -4.032222270965576 -2.746924877166748 -0.8558002710342407
H -1.1703829765319824 -3.9313485622406006 2.34645414352417
H 2.660640001296997 3.050471544265747 -2.6445772647857666
