19
Generated by QM7 dataset
C 1.8924661874771118 0.008125822059810162 -0.008636048063635826
C 4.789529800415039 -0.030934816226363182 -0.05778782442212105
C 5.767463207244873 -2.3399345874786377 -1.5334938764572144
C 6.292504787445068 -1.2832374572753906 -4.096604824066162
C 6.338991641998291 1.2439500093460083 -4.075591087341309
C 5.8479084968566895 2.2910282611846924 -1.484946846961975
C 8.278209686279297 3.294888734817505 -0.3004097640514374
H 1.2076294422149658 1.670328974723816 1.015784502029419
H 1.1597437858581543 -1.672105312347412 0.9511558413505554
H 1.0880286693572998 0.055954791605472565 -1.9149161577224731
H 5.452086448669434 -0.09495873749256134 1.9053730964660645
H 4.3832573890686035 -3.8738250732421875 -1.6076844930648804
H 7.520354270935059 -3.0684995651245117 -0.708307147026062
H 6.652969837188721 -2.4386160373687744 -5.743709087371826
H 6.735191822052002 2.4111015796661377 -5.705839157104492
H 4.451136589050293 3.816849946975708 -1.57725989818573
H 9.736738204956055 1.830993413925171 -0.17105801403522491
H 7.913776397705078 3.9971108436584473 1.6108781099319458
H 9.048311233520508 4.858901500701904 -1.416236400604248
