17
Generated by QM7 dataset
C 5.4686784744262695 -0.8096720576286316 -3.271928548812866
C 5.329802513122559 -1.2582930326461792 -0.4724315404891968
C 4.176332473754883 -3.306226968765259 0.4900059998035431
C 6.508594512939453 0.7335160970687866 1.2089145183563232
C 9.307581901550293 1.0408611297607422 0.8821619749069214
C 10.41469669342041 3.308248996734619 -0.44062745571136475
O 10.356152534484863 3.125701427459717 2.2623233795166016
H 4.619832515716553 1.0152175426483154 -3.751711130142212
H 4.463117599487305 -2.2687673568725586 -4.341362476348877
H 7.436091423034668 -0.8115806579589844 -3.9121298789978027
H 3.31354022026062 -4.722878932952881 -0.7179447412490845
H 4.056467056274414 -3.6216602325439453 2.5142996311187744
H 6.155896186828613 0.2748984694480896 3.2012526988983154
H 5.539297580718994 2.535332202911377 0.8652111291885376
H 10.342867851257324 -0.720136821269989 0.9196730256080627
H 9.159407615661621 4.663125991821289 -1.3176681995391846
H 12.229910850524902 3.1048200130462646 -1.358297348022461
