11
Generated by QM7 dataset
C 1.8383444547653198 -0.033108003437519073 -0.013568233698606491
C 4.637406826019287 0.1534646600484848 0.00018897261179517955
C 6.059784889221191 2.3451690673828125 0.0013795000268146396
S 9.2197847366333 1.6275832653045654 0.01887836493551731
C 8.459283828735352 -1.5206626653671265 0.023168042302131653
N 6.034727096557617 -2.061161994934082 0.01252888422459364
H 0.954765260219574 1.8375319242477417 0.004289678297936916
H 1.1823638677597046 -1.0723251104354858 1.6500521898269653
H 1.1968958377838135 -1.0340770483016968 -1.7060447931289673
H 5.413460731506348 4.281892776489258 -0.0069541921839118
H 9.90097427368164 -2.9704039096832275 0.03395837917923927
