18
Generated by QM7 dataset
C 1.9258198738098145 0.04185743257403374 -0.10416170209646225
C 4.737618923187256 -0.11317569762468338 -0.09673508256673813
C 6.104098796844482 -1.4339430332183838 -2.2016820907592773
C 6.269941329956055 1.413760781288147 -1.9734032154083252
C 8.678963661193848 2.7830753326416016 -1.1915290355682373
C 11.285274505615234 1.988823413848877 -2.045212745666504
N 10.064114570617676 4.190656661987305 -3.137172222137451
H 1.3014922142028809 1.6673998832702637 1.0125341415405273
H 1.11720609664917 -1.6661337614059448 0.7372577786445618
H 1.159460425376892 0.24165818095207214 -2.0155818462371826
H 5.478183746337891 -0.3345760107040405 1.8005121946334839
H 5.021701335906982 -2.192025661468506 -3.7669990062713623
H 7.749540328979492 -2.550903558731079 -1.716003656387329
H 5.16904354095459 2.46038556098938 -3.3681721687316895
H 8.569605827331543 3.741544246673584 0.6263308525085449
H 11.460017204284668 0.3633187413215637 -3.2753489017486572
H 12.869034767150879 2.327216625213623 -0.7966329455375671
H 10.781208992004395 5.82540225982666 -2.402068614959717
