16
Generated by QM7 dataset
C 1.8533867597579956 0.016478411853313446 0.0032503290567547083
C 4.722387790679932 -0.03322138637304306 0.041290514171123505
C 5.8717193603515625 2.1165688037872314 1.570438027381897
N 8.253076553344727 1.1134833097457886 2.3626301288604736
C 8.270915985107422 -1.4907104969024658 2.388897180557251
O 9.963448524475098 -2.7974939346313477 3.242033004760742
C 5.804879665374756 -2.4107046127319336 1.297561526298523
H 1.1120660305023193 -1.5766173601150513 -1.0887089967727661
H 1.1658854484558105 1.764758586883545 -0.863207995891571
H 1.0675251483917236 -0.10017438232898712 1.9141980409622192
H 5.43403959274292 0.06753881275653839 -1.9063745737075806
H 4.771539688110352 2.5744307041168213 3.262026309967041
H 6.167518138885498 3.827489137649536 0.4511154294013977
H 9.654346466064453 2.094874858856201 3.220339059829712
H 6.133106231689453 -3.912545680999756 -0.08216529339551926
H 4.612878322601318 -3.1032137870788574 2.8393514156341553
