15
Generated by QM7 dataset
O 4.794877529144287 -1.0048996210098267 -2.7748172283172607
C 4.313016414642334 -0.27365124225616455 -0.23039540648460388
C 5.517414569854736 2.294240951538086 0.31429925560951233
C 8.357559204101562 2.1521902084350586 0.3557787537574768
C 9.782904624938965 2.7573938369750977 2.360456943511963
C 12.459399223327637 2.595141887664795 2.2695043087005615
C 14.722912788391113 2.463862657546997 2.195408344268799
H 4.086570739746094 -2.686359167098999 -2.9935717582702637
H 5.046891689300537 -1.7352221012115479 1.0380265712738037
H 2.2623989582061768 -0.15157493948936462 0.014569788239896297
H 4.8044209480285645 3.0033228397369385 2.125507354736328
H 4.9656901359558105 3.64998722076416 -1.1520715951919556
H 9.250473976135254 1.5257648229599 -1.3901581764221191
H 8.925535202026367 3.3953843116760254 4.111798286437988
H 16.73110580444336 2.3482115268707275 2.120518445968628
