16
Generated by QM7 dataset
O 5.712566375732422 5.102959632873535 -2.8261232376098633
C 4.486814498901367 3.910334587097168 -1.259181261062622
C 5.583630561828613 1.9464179277420044 0.4807085394859314
C 8.422905921936035 1.6286982297897339 0.20889033377170563
C 10.124170303344727 3.705885171890259 1.3645334243774414
C 11.765510559082031 1.4858161211013794 2.264364242553711
N 9.477543830871582 -0.12502427399158478 2.148637533187866
H 2.4341561794281006 4.219266891479492 -1.0649173259735107
H 4.621608734130859 0.16264872252941132 0.05289343371987343
H 5.0704755783081055 2.489506244659424 2.4132936000823975
H 8.983833312988281 1.0957955121994019 -1.718970537185669
H 9.260583877563477 4.789473056793213 2.9053027629852295
H 11.012020111083984 5.006848335266113 0.02925296127796173
H 13.245638847351074 0.9276854395866394 0.9262303709983826
H 12.593304634094238 1.684955358505249 4.146134853363037
H 9.806299209594727 -1.9162768125534058 1.5208326578140259
