20
Generated by QM7 dataset
C 1.9039558172225952 -0.09524219483137131 -0.007388829253613949
C 4.776528358459473 -0.08422509580850601 0.08418729901313782
N 5.706802845001221 2.514488458633423 -0.04325583204627037
C 8.475686073303223 2.5867137908935547 0.06680181622505188
C 9.42391300201416 5.326778888702393 -0.029574213549494743
C 12.262073516845703 5.456716537475586 0.0657624676823616
C 13.572258949279785 6.608448028564453 1.898777961730957
H 1.1962155103683472 -2.0374081134796143 0.07967085391283035
H 1.2072893381118774 0.7587628364562988 -1.759656310081482
H 1.0969104766845703 0.9476598501205444 1.5883147716522217
H 5.503751754760742 -1.1852362155914307 -1.5115163326263428
H 5.400950908660889 -0.9952998757362366 1.8360956907272339
H 4.979730606079102 3.5313313007354736 1.4241732358932495
H 9.264287948608398 1.530300259590149 -1.533342719078064
H 9.141077995300293 1.686826229095459 1.8123040199279785
H 8.598291397094727 6.408514976501465 1.535478115081787
H 8.788549423217773 6.229501247406006 -1.7844306230545044
H 13.28209114074707 4.569055557250977 -1.484153151512146
H 12.640453338623047 7.5358686447143555 3.4738457202911377
H 15.623272895812988 6.65189266204834 1.854085922241211
