14
Generated by QM7 dataset
C 1.8463380336761475 -0.04671403020620346 -0.1771807223558426
C 4.7249579429626465 0.007369931787252426 -0.09063126891851425
C 5.904203414916992 -1.6685714721679688 -2.114830255508423
C 5.719237327575684 2.690157413482666 -0.2536390423774719
O 5.16607666015625 3.9024922847747803 -2.4303200244903564
O 6.92732048034668 3.701085329055786 1.4356815814971924
H 1.0442438125610352 1.2220858335494995 1.2480318546295166
H 1.141054391860962 -1.9562822580337524 0.19420716166496277
H 1.1197571754455566 0.5488709807395935 -2.0209109783172607
H 5.31666898727417 -0.7229336500167847 1.7591460943222046
H 5.2976393699646 -1.1224405765533447 -4.01640510559082
H 5.372321128845215 -3.64734148979187 -1.8248518705368042
H 7.96978759765625 -1.544718861579895 -2.060028314590454
H 4.193604469299316 2.906323194503784 -3.6356441974639893
