14
Generated by QM7 dataset
O 2.9927024841308594 3.366849422454834 2.857058048248291
N 5.37659215927124 4.080296516418457 1.9542224407196045
C 5.348699569702148 4.020864963531494 -0.4812943637371063
O 7.360483169555664 4.619227886199951 -1.9501029253005981
C 9.665022850036621 5.362589359283447 -0.7064741253852844
C 11.498775482177734 6.807814121246338 -2.326781988143921
C 10.032064437866211 8.150993347167969 -0.30479392409324646
H 3.204900026321411 3.5063679218292236 4.683686256408691
H 3.714672565460205 3.4904375076293945 -1.6559292078018188
H 10.466795921325684 4.077858924865723 0.6794699430465698
H 10.99009895324707 7.162024021148682 -4.2783589363098145
H 13.498181343078613 6.49519681930542 -2.0181896686553955
H 11.024662017822266 8.738566398620605 1.3864353895187378
H 8.523741722106934 9.411346435546875 -0.8769274353981018
