19
Generated by QM7 dataset
C 1.7203688621520996 0.018594905734062195 -0.5817332863807678
C 4.461303234100342 -0.44164788722991943 0.012812343426048756
C 5.028580188751221 -2.984916925430298 1.1456654071807861
C 6.231957912445068 1.3267011642456055 -0.45500826835632324
C 8.95588493347168 1.146043300628662 0.026040425524115562
C 10.563493728637695 -0.4215412139892578 -1.7245829105377197
C 10.75195598602295 2.4064340591430664 -1.7888336181640625
H 1.3992855548858643 1.8906898498535156 -1.4028948545455933
H 0.5810151696205139 -0.11595359444618225 1.1401851177215576
H 1.0353809595108032 -1.38749361038208 -1.9357976913452148
H 3.9419310092926025 -3.2473621368408203 2.886632204055786
H 7.0249247550964355 -3.2299766540527344 1.6223487854003906
H 4.511475563049316 -4.486266613006592 -0.18090347945690155
H 5.610483646392822 3.1175756454467773 -1.2601827383041382
H 9.47397232055664 1.1791324615478516 2.011594533920288
H 9.66910457611084 -1.3603004217147827 -3.3107244968414307
H 12.117094039916992 -1.4726635217666626 -0.9027599692344666
H 12.438838958740234 3.2732701301574707 -1.0141782760620117
H 10.000733375549316 3.3720462322235107 -3.43198823928833
