15
Generated by QM7 dataset
C 1.7809535264968872 -1.0399730205535889 0.46672457456588745
C 4.396183490753174 -0.1374964714050293 -0.3356342613697052
C 5.553980827331543 -1.940427541732788 -2.26812481880188
N 4.244759559631348 2.409306287765503 -1.3605650663375854
C 6.268826484680176 4.029103755950928 -1.3156840801239014
O 8.31704330444336 3.612513780593872 -0.3388090133666992
H 0.965177595615387 0.2386913150548935 1.8770838975906372
H 1.8721895217895508 -2.933554172515869 1.2976182699203491
H 0.47760939598083496 -1.1033165454864502 -1.1421315670013428
H 5.624070644378662 -0.0868140161037445 1.3330316543579102
H 4.416781425476074 -2.016148805618286 -3.9971299171447754
H 5.691628456115723 -3.856874465942383 -1.500272512435913
H 7.458333492279053 -1.331482172012329 -2.803767681121826
H 2.735888719558716 2.88812518119812 -2.433135747909546
H 5.840898036956787 5.822416305541992 -2.2886850833892822
