17
Generated by QM7 dataset
C 1.9501595497131348 -0.006198301911354065 -0.22393254935741425
C 4.840892314910889 -0.12474082410335541 -0.027476618066430092
C 5.546478271484375 -1.4747800827026367 2.4508235454559326
C 5.959799289703369 -1.6209125518798828 -2.245145797729492
C 5.938955783843994 2.5551364421844482 0.010053343139588833
O 5.437819004058838 3.932690143585205 -2.0847647190093994
O 7.172342300415039 3.43994402885437 1.750056505203247
H 1.3302538394927979 0.8127334117889404 -2.0207786560058594
H 1.1497471332550049 1.1602917909622192 1.2890955209732056
H 1.1127463579177856 -1.8950551748275757 -0.08465973287820816
H 4.796578407287598 -0.46423012018203735 4.0967183113098145
H 7.60180139541626 -1.5938138961791992 2.6827118396759033
H 4.7938761711120605 -3.4033401012420654 2.4984447956085205
H 5.401838779449463 -0.8269630670547485 -4.073266983032227
H 5.329916000366211 -3.5933709144592285 -2.2104883193969727
H 8.030051231384277 -1.6104624271392822 -2.179307699203491
H 4.442368030548096 3.066647529602051 -3.367643117904663
