18
Generated by QM7 dataset
C 1.9178264141082764 -0.7900567054748535 -0.6699079275131226
C 4.6454758644104 -0.04816911742091179 -0.7934771180152893
C 5.717612266540527 2.101942300796509 0.07379380613565445
C 4.252583026885986 4.111798286437988 1.4934883117675781
N 3.4271883964538574 6.133068561553955 -0.19411267340183258
C 8.433866500854492 2.4461936950683594 -0.3391302525997162
C 9.85994815826416 4.417877197265625 0.35901015996932983
H 1.696690559387207 -2.438049077987671 0.5579605102539062
H 1.262582778930664 -1.3072936534881592 -2.5627899169921875
H 0.6775045990943909 0.7070788145065308 0.016572898253798485
H 5.818448066711426 -1.434604525566101 -1.7630010843276978
H 5.389442443847656 4.898151397705078 3.0350325107574463
H 2.5915892124176025 3.311234712600708 2.4311704635620117
H 4.967863082885742 6.832248210906982 -1.1123872995376587
H 2.7148561477661133 7.576384544372559 0.8586726784706116
H 9.394640922546387 0.9218651056289673 -1.3390599489212036
H 9.124542236328125 6.048748970031738 1.353610873222351
H 11.866365432739258 4.433675289154053 -0.0725276917219162
