16
Generated by QM7 dataset
C 3.291487216949463 -1.7655900716781616 0.2865391671657562
N 5.872172832489014 -1.4520844221115112 -0.6666197776794434
C 6.749893665313721 1.1573060750961304 -0.21438942849636078
C 9.532307624816895 1.3853204250335693 -0.9258524179458618
C 11.25352668762207 -0.051646213978528976 0.8402100205421448
O 10.401676177978516 -2.3738739490509033 1.4784650802612305
O 13.316824913024902 0.7396388053894043 1.522968053817749
H 2.668274402618408 -3.7061686515808105 -0.05548235774040222
H 1.9741401672363281 -0.48966583609580994 -0.673101544380188
H 3.2032370567321777 -1.4297479391098022 2.324967861175537
H 5.819997310638428 -1.758957028388977 -2.5804965496063232
H 6.511674880981445 1.6510915756225586 1.7849408388137817
H 5.630684852600098 2.480435609817505 -1.3484140634536743
H 10.070123672485352 3.383932590484619 -0.8254134654998779
H 9.88332462310791 0.7345743179321289 -2.860119342803955
H 8.687600135803223 -2.68135142326355 0.7858803868293762
