16
Generated by QM7 dataset
C 4.325280666351318 -1.0406721830368042 -2.6503219604492188
C 4.652770519256592 0.004762109834700823 0.006840808782726526
C 5.678853988647461 2.63407039642334 0.007936850190162659
C 4.306232452392578 4.8528547286987305 -0.02328142523765564
N 5.9610466957092285 6.843794345855713 -0.010336802341043949
C 8.385414123535156 5.942716121673584 0.030670255422592163
C 8.273240089416504 3.344172716140747 0.04391723498702049
H 3.5724706649780273 -2.965698480606079 -2.5761125087738037
H 6.130763053894043 -1.0943782329559326 -3.660626173019409
H 3.015171527862549 0.12045114487409592 -3.754375696182251
H 5.922647476196289 -1.2341234683990479 1.078428864479065
H 2.826349973678589 -0.0286860428750515 0.9861347079277039
H 2.287437915802002 5.18278169631958 -0.05463198199868202
H 5.467809200286865 8.690813064575195 -0.028062433004379272
H 9.978850364685059 7.222249984741211 0.04705417901277542
H 9.885951042175293 2.0855963230133057 0.07443631440401077
