14
Generated by QM7 dataset
C 1.8466215133666992 -0.026512857526540756 -0.015401268377900124
C 4.6451735496521 0.1305989772081375 -0.0005102260620333254
C 6.242162227630615 2.199357748031616 0.00876832939684391
C 8.726131439208984 1.2512822151184082 0.02125941962003708
O 10.897162437438965 2.547804355621338 0.03320248797535896
C 8.631815910339355 -1.3321435451507568 0.01948307640850544
N 6.131462097167969 -2.0064923763275146 0.005990431644022465
H 0.9979076981544495 1.8599251508712769 0.0010393493575975299
H 1.1670570373535156 -1.0494972467422485 1.6490505933761597
H 1.1837055683135986 -1.0131388902664185 -1.7082935571670532
H 5.6533613204956055 4.156735897064209 0.006576247047632933
H 10.53879451751709 4.350130558013916 0.03235211223363876
H 10.110847473144531 -2.7407264709472656 0.026493960991501808
H 5.480734825134277 -3.8045101165771484 0.0015684727113693953
