19
Generated by QM7 dataset
C 2.487748861312866 -0.11194737255573273 1.8836034536361694
C 4.247669696807861 0.4007920026779175 -0.32756513357162476
C 6.276593208312988 2.2354705333709717 0.37580984830856323
O 6.908555507659912 4.015025615692139 -1.5694175958633423
C 5.715287685394287 5.017279624938965 0.6465508937835693
C 7.374391555786133 6.6453351974487305 2.255293607711792
C 6.609921932220459 9.409513473510742 2.1087076663970947
H 1.0762178897857666 -1.53262460231781 1.3683695793151855
H 1.4880837202072144 1.6104246377944946 2.4481024742126465
H 3.5362255573272705 -0.7998454570770264 3.5293281078338623
H 3.1402711868286133 1.1004441976547241 -1.9320937395095825
H 5.128660202026367 -1.3740954399108887 -0.9294617772102356
H 7.794704437255859 1.4065608978271484 1.4658606052398682
H 3.771061897277832 5.636032581329346 0.5304083228111267
H 9.358604431152344 6.454832077026367 1.6880735158920288
H 7.2414116859436035 6.01080322265625 4.222044944763184
H 6.6756086349487305 10.097638130187988 0.15915273129940033
H 7.877965927124023 10.571524620056152 3.256338357925415
H 4.681418418884277 9.677117347717285 2.8106462955474854
