11
Generated by QM7 dataset
O 5.0118184089660645 -2.244333267211914 0.17442172765731812
C 3.9976589679718018 -0.16544552147388458 0.0185382142663002
C 5.391407489776611 2.2021923065185547 -0.003741657827049494
C 4.24332332611084 4.541257381439209 -0.1795617789030075
S 6.371986389160156 6.977756977081299 -0.1601920872926712
C 8.863137245178223 4.936871528625488 0.08394163846969604
C 8.083983421325684 2.4546597003936768 0.14883482456207275
H 1.9235711097717285 0.000869274022988975 -0.11534888297319412
H 2.2475457191467285 4.96164608001709 -0.32015740871429443
H 10.7769193649292 5.650300025939941 0.16820451617240906
H 9.376575469970703 0.8711070418357849 0.2992570400238037
