17
Generated by QM7 dataset
C 2.2879669666290283 4.504804611206055 3.7136518955230713
C 1.5730080604553223 2.1726937294006348 2.20351505279541
C 3.8002769947052 1.1497093439102173 0.6899201273918152
O 2.949446678161621 -1.0319983959197998 -0.6823800802230835
C 4.673633098602295 -2.1374881267547607 -2.215552806854248
N 6.954853534698486 -1.3227516412734985 -2.506627321243286
N 8.328174591064453 -2.71850323677063 -4.1561503410339355
H 0.6564152836799622 5.196255683898926 4.778833866119385
H 2.93198561668396 6.023804187774658 2.4674909114837646
H 3.8007304668426514 4.0807881355285645 5.05792760848999
H 0.007407726254314184 2.6183667182922363 0.9191250205039978
H 0.8616394996643066 0.698461651802063 3.4763591289520264
H 5.335925102233887 0.602331280708313 1.9667702913284302
H 4.4721503257751465 2.590606689453125 -0.637612521648407
H 3.8450069427490234 -3.7996912002563477 -3.1610772609710693
H 10.182052612304688 -2.1768510341644287 -4.054218292236328
H 7.806723117828369 -2.332961320877075 -5.979055881500244
