17
Generated by QM7 dataset
C -3.229447364807129 1.5739717483520508 0.9745317697525024
C -2.1827847957611084 -0.45763498544692993 -0.7005403637886047
N -0.7437584400177002 -2.604156017303467 0.3658131957054138
C 1.8694682121276855 -2.499748706817627 -0.6082272529602051
C 3.213932752609253 0.09170840680599213 -0.24012750387191772
N 1.6051712036132812 2.1695945262908936 0.7079291939735413
C -0.8922908902168274 2.104965925216675 -0.5466221570968628
H -4.968581199645996 2.484196186065674 0.3854285478591919
H -3.0722033977508545 1.3643633127212524 3.0034172534942627
H -3.2028589248657227 -0.8775888085365295 -2.432871103286743
H -0.6608561277389526 -2.4262759685516357 2.282071113586426
H 2.978567361831665 -3.989362955093384 0.3054742217063904
H 1.8275352716445923 -2.9507696628570557 -2.6320672035217285
H 4.783936023712158 -0.14520655572414398 1.0916380882263184
H 4.054671764373779 0.6757849454879761 -2.0419623851776123
H 1.3677082061767578 1.9101918935775757 2.60160493850708
H -1.0739502906799316 3.327486515045166 -2.1861486434936523
