18
Generated by QM7 dataset
N 2.715574264526367 -1.0385557413101196 2.905869722366333
C 5.073366641998291 -0.5136086940765381 1.5392385721206665
C 5.492715835571289 2.3425233364105225 1.1353285312652588
C 5.649468421936035 3.7928314208984375 3.643543243408203
O 3.316129207611084 3.7155983448028564 4.974363803863525
C 7.912604808807373 2.807093620300293 -0.3863545060157776
O 7.744324684143066 1.6130324602127075 -2.7864956855773926
H 2.5465383529663086 -2.9523568153381348 3.114041805267334
H 1.233405351638794 -0.53316730260849 1.770503282546997
H 5.004164695739746 -1.502880334854126 -0.27780863642692566
H 6.650891304016113 -1.312320351600647 2.617403030395508
H 3.874411106109619 3.0524368286132812 0.04484320059418678
H 6.096993446350098 5.784338474273682 3.309345006942749
H 7.121263027191162 3.009521245956421 4.869899749755859
H 2.7500429153442383 1.9463423490524292 4.89047908782959
H 9.570838928222656 2.0587244033813477 0.6015376448631287
H 8.192870140075684 4.833711624145508 -0.6994821429252625
H 9.260905265808105 2.063051700592041 -3.7251603603363037
