16
Generated by QM7 dataset
C 2.880906343460083 -0.8084059357643127 -1.1158076524734497
C 5.48536491394043 -0.43316301703453064 0.03932520002126694
C 6.01393985748291 2.306410789489746 0.5368145108222961
C 7.922733306884766 3.596129894256592 -0.5243045091629028
C 8.312356948852539 6.298740863800049 0.08985647559165955
N 10.326465606689453 7.352489948272705 -1.1058109998703003
O 6.974733352661133 7.508430004119873 1.532378911972046
H 2.528208017349243 -2.8205864429473877 -1.4431649446487427
H 2.7190701961517334 0.17321230471134186 -2.93088960647583
H 1.3947312831878662 -0.09650831669569016 0.13687285780906677
H 6.91312837600708 -1.2471814155578613 -1.2217079401016235
H 5.599334239959717 -1.4682605266571045 1.829368233680725
H 4.758821964263916 3.260892629623413 1.862230658531189
H 9.210714340209961 2.706087827682495 -1.8398184776306152
H 11.473132133483887 6.410574436187744 -2.301913261413574
H 10.683547973632812 9.196540832519531 -0.7520543336868286
