15
Generated by QM7 dataset
C 2.1758873462677 -0.6354393362998962 0.06906948983669281
C 5.035666465759277 -0.35976606607437134 0.09155723452568054
C 5.834831714630127 2.4080970287323 -0.12022437900304794
C 8.71027660369873 2.677363872528076 -0.09168951213359833
C 9.466073036193848 5.341291904449463 -0.2908666431903839
N 10.066627502441406 7.443631172180176 -0.4476383328437805
H 1.6472554206848145 -2.6283633708953857 0.23222844302654266
H 1.3741710186004639 0.099456287920475 -1.690605640411377
H 1.3197847604751587 0.3872993588447571 1.6503545045852661
H 5.835209846496582 -1.4456404447555542 -1.4810351133346558
H 5.782618522644043 -1.1755797863006592 1.8430688381195068
H 5.013556957244873 3.491042375564575 1.4468121528625488
H 5.0713067054748535 3.2210004329681396 -1.869222640991211
H 9.532459259033203 1.6077978610992432 -1.6635069847106934
H 9.474557876586914 1.8730398416519165 1.6574788093566895
