16
Generated by QM7 dataset
C 1.8595472574234009 0.24162037670612335 -0.7203258275985718
C 4.598875522613525 0.09337136894464493 0.011489534750580788
N 5.813421249389648 -1.9544681310653687 0.5957739353179932
O 4.223141193389893 -4.065367698669434 0.4918390214443207
C 6.058518886566162 2.48769211769104 0.03265446797013283
C 5.289475917816162 4.630414962768555 1.756500482559204
C 7.662026882171631 3.179445266723633 2.292426824569702
H 1.3427637815475464 2.16636323928833 -1.2637732028961182
H 0.6893342733383179 -0.33954599499702454 0.880687952041626
H 1.4969654083251953 -1.0141971111297607 -2.3210182189941406
H 5.3615875244140625 -5.43558931350708 0.9647429585456848
H 6.813804626464844 3.0007717609405518 -1.8051230907440186
H 3.705941915512085 4.358313083648682 3.027681350708008
H 5.473780632019043 6.542609691619873 1.0455477237701416
H 9.460762977600098 4.092371940612793 1.9383299350738525
H 7.674990177154541 1.9081698656082153 3.9003190994262695
