17
Generated by QM7 dataset
C 2.4042797088623047 -0.1695462316274643 -1.4822255373001099
O 4.747899055480957 -0.37643343210220337 -0.17272096872329712
C 6.017020225524902 1.8803153038024902 -0.08981868624687195
C 8.549290657043457 2.0550014972686768 0.0370953232049942
C 10.213554382324219 -0.25414925813674927 0.05533118173480034
C 9.721091270446777 4.5463409423828125 0.15639373660087585
C 12.203076362609863 5.030828952789307 0.2689458131790161
H 1.544737696647644 -2.047556161880493 -1.5586650371551514
H 2.7016658782958984 0.48976030945777893 -3.4211790561676025
H 1.108343243598938 1.0955876111984253 -0.47951799631118774
H 4.787261962890625 3.5172717571258545 -0.08069130778312683
H 9.134634017944336 -2.0170748233795166 -0.03422294184565544
H 11.344233512878418 -0.3248061239719391 1.7881155014038086
H 11.490517616271973 -0.24420930445194244 -1.573839545249939
H 8.444147109985352 6.162018775939941 0.15397489070892334
H 13.627079963684082 3.5578250885009766 0.28190934658050537
H 12.874421119689941 6.967930316925049 0.3533220887184143
