16
Generated by QM7 dataset
N 4.195154190063477 -0.8056091666221619 -2.8261609077453613
C 4.535248279571533 0.1257612705230713 -0.24383136630058289
C 6.318885326385498 2.4060750007629395 -0.13432173430919647
C 6.71166467666626 3.341848373413086 2.5835957527160645
O 6.714518070220947 6.0719170570373535 2.5627331733703613
C 5.658520221710205 6.660906791687012 0.25698384642601013
C 5.346526622772217 4.753077030181885 -1.3382095098495483
H 3.07883620262146 -2.3750646114349365 -2.8001773357391357
H 5.891523361206055 -1.3549714088439941 -3.554253578186035
H 5.296618938446045 -1.407543659210205 0.9221296906471252
H 2.6759467124938965 0.6205293536186218 0.524550199508667
H 8.147459983825684 1.915464162826538 -0.9821473360061646
H 8.516258239746094 2.6824851036071777 3.354736328125
H 5.203304290771484 2.7214701175689697 3.8640174865722656
H 5.2597503662109375 8.637409210205078 -0.029725391417741776
H 4.607058048248291 4.880614757537842 -3.236647367477417
