13
Generated by QM7 dataset
C 2.795736312866211 -0.9679177403450012 1.4719455242156982
C 4.600746154785156 -0.35022294521331787 -0.19184499979019165
C 5.966111183166504 2.139113187789917 -0.22979070246219635
C 8.802192687988281 1.7917627096176147 0.07277335226535797
O 10.017797470092773 0.003798349527642131 -0.7543408870697021
C 10.126910209655762 3.839167594909668 1.3174036741256714
C 11.232891082763672 5.536500930786133 2.3466997146606445
H 1.8922961950302124 -2.8099849224090576 1.3959406614303589
H 2.177625894546509 0.3245982527732849 2.9402248859405518
H 5.151450157165527 -1.7254711389541626 -1.622140884399414
H 5.262339115142822 3.376260280609131 1.2758864164352417
H 5.630589962005615 3.0873589515686035 -2.0387120246887207
H 12.23590087890625 7.030423641204834 3.2523698806762695
