15
Generated by QM7 dataset
C 1.8887057304382324 -0.09097141772508621 0.20342901349067688
C 4.762109756469727 0.0 0.0
C 5.746222496032715 -1.3587509393692017 -2.325629234313965
N 4.318704605102539 -1.9066580533981323 -4.244041442871094
N 5.585822582244873 -3.0601847171783447 -6.140986442565918
C 5.672995567321777 2.5722384452819824 0.0
C 6.423746109008789 4.692322254180908 0.0
H 1.2449893951416016 0.7794742584228516 1.968603253364563
H 1.206892490386963 -2.045212745666504 0.1713036745786667
H 0.9759112596511841 0.919654130935669 -1.3578627109527588
H 5.558950901031494 -1.0082255601882935 1.6268463134765625
H 7.788638591766357 -1.816102385520935 -2.3168041706085205
H 6.764463901519775 -1.8161213397979736 -7.039608001708984
H 4.325772285461426 -3.612494945526123 -7.499869346618652
H 7.085906028747559 6.594766139984131 -0.002683411119505763
