14
Generated by QM7 dataset
C 1.5186028480529785 0.04658174887299538 0.2100430577993393
C 4.3335957527160645 0.03165291249752045 0.42877885699272156
C 5.83071231842041 1.8950551748275757 -0.4243191182613373
C 8.65921688079834 1.901593565940857 -0.20790767669677734
C 9.798192024230957 1.985856533050537 -2.7383644580841064
C 10.739936828613281 2.0542078018188477 -4.802890300750732
H 0.889097273349762 -1.5922642946243286 -0.8825966119766235
H 0.8146798610687256 1.7531555891036987 -0.7229147553443909
H 0.6661662459373474 -0.05875158682465553 2.091038703918457
H 5.16467809677124 -1.6177189350128174 1.3319168090820312
H 4.988045692443848 3.541630268096924 -1.3244524002075195
H 9.335416793823242 0.23073555529117584 0.8120531439781189
H 9.243311882019043 3.5592613220214844 0.886772871017456
H 11.569262504577637 2.1113343238830566 -6.636793613433838
