17
Generated by QM7 dataset
C 2.091851234436035 0.021656261757016182 0.10093027353286743
C 4.940953731536865 0.19940389692783356 -0.04240545630455017
C 6.3917717933654785 -2.2902536392211914 -0.13050448894500732
C 6.572013854980469 -3.184377431869507 -2.816617965698242
C 5.620177745819092 -5.368655204772949 -3.670056104660034
N 5.927730560302734 2.45585036277771 -0.14477191865444183
N 8.472738265991211 2.5787203311920166 -0.2993137240409851
H 1.2446303367614746 1.9058455228805542 0.17837125062942505
H 1.5575878620147705 -1.024741768836975 1.7995483875274658
H 1.375569462776184 -0.9689759612083435 -1.5635972023010254
H 5.395791530609131 -3.665822982788086 1.0553364753723145
H 8.286014556884766 -2.075165033340454 0.6668843626976013
H 7.561550140380859 -1.9391802549362183 -4.123987197875977
H 4.629602432250977 -6.675570964813232 -2.439296245574951
H 5.82683801651001 -5.896965980529785 -5.64283561706543
H 8.979562759399414 4.359692573547363 -0.8627166748046875
H 9.259696006774902 2.403240203857422 1.4598134756088257
