15
Generated by QM7 dataset
C 4.76033353805542 -2.148864269256592 -0.2556988298892975
C 3.8559861183166504 0.21227294206619263 -0.32172587513923645
C 5.313286304473877 2.5401508808135986 -0.13280995190143585
C 4.092617511749268 4.770613670349121 -0.23462839424610138
C 8.150860786437988 2.4670186042785645 0.25745630264282227
C 9.479962348937988 2.075901985168457 -2.1548547744750977
C 10.578459739685059 1.7810479402542114 -4.120207786560059
H 3.4808566570281982 -3.7454750537872314 -0.41717594861984253
H 6.752237319946289 -2.58459734916687 -0.06296567618846893
H 1.8189936876296997 0.42802298069000244 -0.5425781607627869
H 2.062239170074463 4.8983025550842285 -0.49108314514160156
H 5.10849666595459 6.548505783081055 -0.09038560092449188
H 8.667682647705078 1.005013108253479 1.6296430826187134
H 8.801569938659668 4.251978397369385 1.0923562049865723
H 11.543070793151855 1.532378911972046 -5.869924068450928
