19
Generated by QM7 dataset
C 1.616849660873413 0.11090802401304245 0.050304509699344635
C 4.480597496032715 -0.1273297518491745 -0.03826695308089256
C 5.749038219451904 2.4697396755218506 -0.07092142105102539
C 8.628433227539062 2.317730188369751 -0.27444493770599365
C 9.820548057556152 1.1424906253814697 2.007418394088745
C 10.96094036102295 -1.4651991128921509 1.9159555435180664
O 12.493621826171875 0.7646020650863647 1.7665915489196777
H 0.7419253587722778 -1.7623775005340576 0.08775888383388519
H 0.9050654172897339 1.1191147565841675 -1.6095741987228394
H 1.0111736059188843 1.1362355947494507 1.7420251369476318
H 5.0224761962890625 -1.1998059749603271 -1.7260569334030151
H 5.109687328338623 -1.213147521018982 1.6093286275863647
H 5.224223613739014 3.5185189247131348 1.6372020244598389
H 5.036290168762207 3.55308198928833 -1.6872986555099487
H 9.37289047241211 4.242208480834961 -0.47509604692459106
H 9.157404899597168 1.2921569347381592 -1.9971003532409668
H 9.144063949584961 1.89405357837677 3.7830238342285156
H 10.760157585144043 -2.5831799507141113 0.21531540155410767
H 11.042671203613281 -2.549769639968872 3.6474738121032715
