12
Generated by QM7 dataset
O 1.7546863555908203 -0.30908361077308655 -0.2486879527568817
C 4.038193702697754 0.012963521294295788 -0.055973686277866364
C 5.270238399505615 2.518721580505371 0.38004282116889954
C 8.045320510864258 2.241611957550049 -0.21457840502262115
O 8.988407135009766 0.17614136636257172 1.2411342859268188
N 8.131982803344727 -2.1801202297210693 0.320327490568161
C 5.744843006134033 -2.242764711380005 -0.22245855629444122
H 4.398564338684082 3.951606273651123 -0.8274165987968445
H 4.991087913513184 3.012280225753784 2.3701701164245605
H 9.07718563079834 3.94555926322937 0.3390924632549286
H 8.399624824523926 1.9041069746017456 -2.228081703186035
H 4.839550971984863 -3.99316143989563 -0.888738214969635
