16
Generated by QM7 dataset
C 2.607633113861084 -0.9713192582130432 0.33272409439086914
C 5.2093892097473145 -0.1652187556028366 -0.5580928325653076
O 5.9814934730529785 1.9743480682373047 0.9182746410369873
C 8.254834175109863 2.9884696006774902 0.3306642770767212
N 9.707258224487305 2.1487507820129395 -1.4317320585250854
O 11.889476776123047 3.651102066040039 -1.5152579545974731
C 13.479927062988281 2.7315614223480225 -3.4763967990875244
H 1.93759286403656 -2.6096363067626953 -0.7332326173782349
H 1.2503372430801392 0.5739476084709167 0.10633488744497299
H 2.642763137817383 -1.4511207342147827 2.345320224761963
H 5.128622055053711 0.3550795316696167 -2.561429262161255
H 6.552757740020752 -1.718082308769226 -0.2883343994617462
H 8.673237800598145 4.614144325256348 1.5616129636764526
H 15.166072845458984 3.9240729808807373 -3.564817190170288
H 12.502711296081543 2.824800491333008 -5.297091484069824
H 14.059127807617188 0.7867685556411743 -3.0756049156188965
