11
Generated by QM7 dataset
O 2.3119099140167236 -0.6464375257492065 1.3515321016311646
C 4.202826499938965 -0.12440066784620285 0.10727975517511368
C 5.609141826629639 2.3829824924468994 0.14652936160564423
C 4.958792686462402 3.931083917617798 2.3700945377349854
C 4.428402900695801 5.20602560043335 4.175236701965332
C 8.356633186340332 1.9181665182113647 -0.05304461345076561
C 10.590837478637695 1.5533548593521118 -0.22234517335891724
H 4.892236232757568 -1.4916741847991943 -1.3122258186340332
H 5.003597736358643 3.3890914916992188 -1.5630680322647095
H 3.9472787380218506 6.321134090423584 5.780351161956787
H 12.57780933380127 1.2443658113479614 -0.3583298623561859
