11
Generated by QM7 dataset
C 6.492928981781006 -2.6074063777923584 -3.4182310104370117
C 5.410097122192383 -1.4218111038208008 -1.4658794403076172
O 6.414920806884766 0.3246549367904663 0.14567898213863373
C 8.990182876586914 1.053238868713379 -0.24934937059879303
C 9.754841804504395 2.9294533729553223 1.6562126874923706
N 10.411219596862793 4.411697864532471 3.1366052627563477
H 5.40391731262207 -3.959826707839966 -4.514593601226807
H 8.431825637817383 -2.307431221008301 -3.9987549781799316
H 3.4574997425079346 -1.7757378816604614 -0.9406867623329163
H 9.197221755981445 1.881165623664856 -2.1373369693756104
H 10.217503547668457 -0.6087563633918762 -0.09333357214927673
