10
Generated by QM7 dataset
C 1.82460618019104 -0.13303671777248383 -0.005158952437341213
C 4.087912082672119 0.026380576193332672 9.448630589758977e-05
C 6.751878261566162 0.21609018743038177 0.00636837724596262
C 8.353723526000977 2.2471301555633545 0.005688075441867113
C 10.768396377563477 1.1333822011947632 0.014645377174019814
N 10.6619291305542 -1.3902148008346558 0.020201172679662704
O 8.096399307250977 -1.9671481847763062 0.01492883637547493
H -0.18226408958435059 -0.2865202724933624 -0.009713192470371723
H 7.859427452087402 4.22459602355957 -0.00018897261179517955
H 12.599276542663574 2.039600372314453 0.017309891059994698
