11
Generated by QM7 dataset
C 5.091829299926758 -1.2679117918014526 -2.2512686252593994
C 5.712868690490723 -0.14654825627803802 -0.06780337542295456
S 6.170938491821289 3.0975635051727295 0.09420284628868103
O 5.181950092315674 4.332461833953857 -2.1514344215393066
O 5.4887285232543945 3.9869821071624756 2.595538854598999
C 9.505266189575195 3.4649829864501953 -0.11880708485841751
O 10.955516815185547 1.8517426252365112 0.7074756622314453
H 4.813416004180908 -3.299083948135376 -2.3353612422943115
H 4.832502365112305 -0.21442721784114838 -3.9957692623138428
H 5.963578701019287 -1.2000706195831299 1.6656423807144165
H 10.165574073791504 5.206667900085449 -1.0435445308685303
