14
Generated by QM7 dataset
C 1.777835488319397 0.26845449209213257 0.19588901102542877
C 4.586705684661865 -0.036301638931035995 -0.3204786479473114
O 4.896204948425293 -1.0825296640396118 -2.782565116882324
C 5.9349493980407715 2.446118116378784 -0.21900035440921783
C 7.403928279876709 3.258190155029297 2.0786609649658203
O 8.63784408569336 2.225435972213745 -0.10642937570810318
H 1.4441665410995483 1.0701329708099365 2.072179079055786
H 0.814925491809845 -1.5588350296020508 0.06967420130968094
H 0.8944640755653381 1.508530616760254 -1.206892490386963
H 5.389461040496826 -1.3803693056106567 1.0365147590637207
H 6.710757732391357 -1.0898617506027222 -3.1025524139404297
H 5.1556830406188965 3.8610317707061768 -1.4710384607315063
H 7.3383355140686035 2.100846290588379 3.764277696609497
H 7.627369403839111 5.262490272521973 2.4260871410369873
