16
Generated by QM7 dataset
O 3.8120310306549072 -0.9368506073951721 -0.8426477909088135
C 4.3491291999816895 -0.03412845358252525 1.224353551864624
C 6.081233024597168 2.1885106563568115 1.620421290397644
C 6.9382429122924805 3.3290927410125732 -0.8811792731285095
N 8.594758033752441 5.49691104888916 -0.3594259023666382
C 11.254962921142578 5.035212993621826 -0.9340160489082336
C 9.636393547058105 6.614343643188477 -2.6590147018432617
H 3.5750784873962402 -0.8677622675895691 2.971348762512207
H 7.699594497680664 1.5293364524841309 2.7303707599639893
H 5.048327922821045 3.587890625 2.745375156402588
H 5.27579402923584 3.9876999855041504 -1.9342858791351318
H 7.843175888061523 1.875307559967041 -2.052809476852417
H 11.834731101989746 3.1785383224487305 -1.56820809841156
H 12.605795860290527 6.0033955574035645 0.2606877088546753
H 9.885459899902344 8.645686149597168 -2.623110055923462
H 9.076430320739746 5.83432149887085 -4.4674072265625
