17
Generated by QM7 dataset
C 2.6603565216064453 5.112087249755859 -2.5484089851379395
O 3.5713555812835693 4.699276447296143 -0.056465018540620804
C 5.4225311279296875 2.7429375648498535 0.008125822059810162
O 7.649819374084473 3.3659989833831787 -1.367613673210144
C 9.199318885803223 5.213792324066162 -0.10361368209123611
C 11.704113006591797 4.267284870147705 0.841532826423645
C 11.587970733642578 5.9050726890563965 -1.4714919328689575
H 1.1341191530227661 6.5037760734558105 -2.45819354057312
H 1.903710126876831 3.3643171787261963 -3.3565125465393066
H 4.156774044036865 5.868166446685791 -3.7580227851867676
H 4.62954568862915 0.9961313605308533 -0.7717830538749695
H 5.904165744781494 2.369508743286133 1.9874249696731567
H 8.275300025939941 6.723078727722168 0.9408379793167114
H 12.14521312713623 2.285094738006592 0.5850781202316284
H 12.447342872619629 5.085536479949951 2.5630922317504883
H 12.249223709106445 7.837865829467773 -1.3203893899917603
H 11.934602737426758 5.034249305725098 -3.292715549468994
