15
Generated by QM7 dataset
C 2.0488977432250977 0.0033637124579399824 -0.22472622990608215
C 4.870542526245117 -0.1763492375612259 0.07810238003730774
C 6.038033962249756 -2.406717300415039 0.4133020043373108
C 6.277424335479736 2.1853737831115723 -0.047167565673589706
C 8.096229553222656 2.6029844284057617 -1.765741229057312
C 5.70415735244751 4.254340648651123 1.7946350574493408
O 6.674210548400879 6.357303142547607 1.7306300401687622
H 1.1975005865097046 1.0574907064437866 1.3394567966461182
H 1.1602540016174316 -1.865480899810791 -0.2667348384857178
H 1.5683592557907104 0.956654965877533 -1.998687744140625
H 4.987818717956543 -4.167545318603516 0.48781388998031616
H 8.076632499694824 -2.540642261505127 0.6261040568351746
H 8.600181579589844 1.1921148300170898 -3.1668407917022705
H 9.125978469848633 4.379969596862793 -1.8299541473388672
H 4.318836688995361 3.7561898231506348 3.269982099533081
