13
Generated by QM7 dataset
C 2.071687936782837 -0.36469826102256775 0.4191979467868805
C 4.708876132965088 -0.41855543851852417 -0.6403903961181641
O 5.391218662261963 -1.9874249696731567 -2.20304274559021
N 6.292240142822266 1.3986430168151855 0.31582993268966675
C 8.927425384521484 1.4619488716125488 -0.4443691074848175
C 10.26306438446045 3.653369665145874 0.6200569272041321
N 11.270062446594238 5.389593601226807 1.5036550760269165
H 1.6704233884811401 1.4291242361068726 1.363588571548462
H 1.856958270072937 -1.9060722589492798 1.77747642993927
H 0.7173022627830505 -0.5994022488594055 -1.1237634420394897
H 5.72475528717041 2.4693050384521484 1.7983012199401855
H 9.00957202911377 1.493847370147705 -2.512561082839966
H 9.80985164642334 -0.29969167709350586 0.19122138619422913
