14
Generated by QM7 dataset
O 2.3092453479766846 0.5197880864143372 1.1030142307281494
C 4.4078240394592285 -0.009165171533823013 0.3084411025047302
C 5.435873031616211 -2.5908145904541016 -0.15885037183761597
C 7.74662971496582 -2.058516502380371 -1.7893060445785522
N 8.571797370910645 0.559755802154541 -1.330140471458435
C 7.219452857971191 2.4333815574645996 -2.8500094413757324
C 6.3758225440979 1.8839247226715088 -0.20528094470500946
H 4.052933216094971 -3.7677927017211914 -1.1434922218322754
H 5.958590030670166 -3.4370338916778564 1.6553056240081787
H 9.273396492004395 -3.368285655975342 -1.3011709451675415
H 7.322745323181152 -2.3720221519470215 -3.7947022914886475
H 8.218153953552246 4.190448760986328 -3.186002731323242
H 6.070915222167969 1.7966004610061646 -4.421014308929443
H 6.807435989379883 3.228767156600952 1.2717479467391968
