16
Generated by QM7 dataset
C 3.7989919185638428 -0.9257957339286804 -2.4681146144866943
O 4.25923490524292 0.1636502891778946 -0.05912953242659569
C 5.797774314880371 2.413444757461548 -0.05285564064979553
C 4.496792316436768 4.894674301147461 -0.9052355289459229
C 5.980038166046143 6.252933502197266 1.1965367794036865
C 6.145805358886719 3.6867423057556152 2.5585379600524902
H 2.6423285007476807 -2.617856502532959 -2.2146835327148438
H 5.585010051727295 -1.4617975950241089 -3.358931541442871
H 2.779503583908081 0.40793517231941223 -3.6729094982147217
H 7.6138200759887695 2.0809285640716553 -1.0019139051437378
H 2.443453788757324 4.908771514892578 -0.6335306763648987
H 4.925230979919434 5.5125579833984375 -2.829071283340454
H 7.815246105194092 6.9873948097229 0.5790309906005859
H 4.959548473358154 7.740204811096191 2.201190710067749
H 7.941252708435059 3.3053011894226074 3.506500244140625
H 4.595020294189453 3.3340437412261963 3.8852014541625977
