15
Generated by QM7 dataset
N 8.702548027038574 3.613553285598755 7.41640043258667
C 7.899017333984375 3.1126623153686523 5.181118965148926
N 9.016884803771973 1.3695411682128906 3.674194574356079
C 8.960457801818848 1.8450719118118286 1.0085657835006714
C 11.067370414733887 3.601439952850342 0.07111039757728577
O 12.004371643066406 1.6878844499588013 -1.6488616466522217
C 10.329167366027832 -0.17776653170585632 -0.5507795810699463
H 7.571490287780762 4.965916633605957 8.225543022155762
H 6.237362384796143 4.068920612335205 4.35614013671875
H 10.697210311889648 0.7730491757392883 4.393972396850586
H 7.070637226104736 2.2937874794006348 0.29400360584259033
H 12.518717765808105 4.135136604309082 1.4454326629638672
H 10.417569160461426 5.283201694488525 -0.9401387572288513
H 9.170916557312012 -1.1027119159698486 -1.9912611246109009
H 11.396050453186035 -1.604736566543579 0.4999081492424011
