8
Generated by QM7 dataset
S -0.9366238713264465 -2.6423285007476807 -0.0033637124579399824
C -2.4537904262542725 0.22363018989562988 -0.0022487740498036146
C -0.698083758354187 2.147749423980713 -0.001795239862985909
N 1.8013814687728882 1.3962619304656982 -0.0023243632167577744
C 1.9085667133331299 -1.0861389636993408 -0.0031558426562696695
H -4.491236686706543 0.357555091381073 -0.001965315081179142
H -1.1407520771026611 4.145246505737305 -0.0010771439410746098
H 3.683208465576172 -2.1037187576293945 -0.003703863127157092
