17
Generated by QM7 dataset
C 2.020249605178833 -0.07298122346401215 -0.002872383687645197
C 4.876797199249268 -0.06561128795146942 0.16240306198596954
C 5.935006141662598 2.0809285640716553 1.7167973518371582
O 8.38940143585205 1.1784899234771729 2.3829824924468994
C 8.036173820495605 -1.4889719486236572 2.695373058319092
C 10.282434463500977 -2.890355110168457 1.601712942123413
O 5.755727767944336 -2.2706193923950195 1.4577347040176392
H 1.368747591972351 -1.7082746028900146 -1.090957760810852
H 1.3159486055374146 1.6482380628585815 -0.9060859084129333
H 1.166849136352539 -0.23761416971683502 1.875666618347168
H 5.715268611907959 -0.07995431125164032 -1.7294584512710571
H 4.87020206451416 2.398648262023926 3.4642648696899414
H 6.075526237487793 3.8568177223205566 0.6701157689094543
H 7.846879959106445 -1.9003652334213257 4.7156982421875
H 10.486449241638184 -2.4814183712005615 -0.4182341992855072
H 10.044404983520508 -4.9350385665893555 1.7988680601119995
H 12.036762237548828 -2.3111538887023926 2.5305323600769043
