14
Generated by QM7 dataset
O 3.8687984943389893 5.28422212600708 0.5935629606246948
C 3.6638200283050537 3.0229759216308594 1.0203198194503784
N 5.575164318084717 1.2838988304138184 0.8155680298805237
C 8.169418334960938 2.045930862426758 0.09473197162151337
C 9.782696723937988 3.0972988605499268 2.260925054550171
O 11.425321578979492 0.907465398311615 2.2237730026245117
C 10.117631912231445 -0.0961492657661438 0.046241600066423416
H 1.8757610321044922 2.1506216526031494 1.6385248899459839
H 5.192173957824707 -0.5155361890792847 1.3468644618988037
H 8.186047554016113 3.2073943614959717 -1.6188149452209473
H 8.842727661132812 3.2973453998565674 4.091899394989014
H 10.823179244995117 4.830121040344238 1.8226597309112549
H 11.341984748840332 -0.1316005289554596 -1.619816541671753
H 9.39723014831543 -1.9990090131759644 0.41197919845581055
