16
Generated by QM7 dataset
C 2.1280205249786377 -2.0983896255493164 0.6011596918106079
N 4.4199371337890625 -0.7946487069129944 -0.11791890859603882
C 4.920431137084961 1.7032856941223145 0.37136897444725037
C 7.149023056030273 2.8595523834228516 0.07024112343788147
C 7.616144180297852 5.575504779815674 0.6172601580619812
C 5.5515618324279785 7.168694972991943 1.7559524774551392
O 9.705349922180176 6.468778133392334 0.11903385072946548
H 2.126924514770508 -4.006521701812744 -0.1955677568912506
H 0.46069633960723877 -1.102504014968872 -0.11240091174840927
H 1.991695761680603 -2.250380277633667 2.6593360900878906
H 5.9504265785217285 -1.9111367464065552 -0.4529862403869629
H 3.263916015625 2.720846652984619 1.039273738861084
H 8.785091400146484 1.8441648483276367 -0.6307339072227478
H 4.855783462524414 6.3035783767700195 3.497713088989258
H 4.0168585777282715 7.416910648345947 0.3971448540687561
H 6.314368724822998 9.030132293701172 2.2342422008514404
