16
Generated by QM7 dataset
C 1.8365870714187622 0.062020812183618546 -0.45986485481262207
C 4.626333236694336 -0.06553570181131363 -0.044635333120822906
C 5.93808650970459 -2.2263996601104736 0.16967850923538208
C 6.06902551651001 2.3641419410705566 0.06504437327384949
C 5.09568452835083 4.3938398361206055 1.8313902616500854
N 8.068960189819336 2.6525895595550537 -1.3447480201721191
O 9.152851104736328 5.043093204498291 -1.0213969945907593
H 1.3938242197036743 1.3492833375930786 -2.0190021991729736
H 0.8653244972229004 0.7289618849754333 1.2396981716156006
H 1.0528987646102905 -1.7916115522384644 -0.9446173906326294
H 5.012403964996338 -4.052309989929199 0.07043009251356125
H 7.973926067352295 -2.221940040588379 0.42889225482940674
H 3.588608741760254 3.6816022396087646 3.049696683883667
H 4.368366718292236 5.976655960083008 0.7195888161659241
H 6.628857135772705 5.0565104484558105 3.049791097640991
H 10.589439392089844 4.978275775909424 -2.173827648162842
