14
Generated by QM7 dataset
O 4.468654155731201 -1.9097950458526611 -2.1832573413848877
C 4.024171829223633 0.41938692331314087 -1.2222559452056885
O 2.434345245361328 1.8434845209121704 -2.1063077449798584
C 5.56057596206665 1.011060118675232 1.1102519035339355
C 8.287148475646973 0.24866905808448792 0.9033268690109253
C 9.545970916748047 -1.161728024482727 3.0310072898864746
N 8.91344165802002 -2.4402410984039307 0.6599679589271545
H 5.813194274902344 -2.787043809890747 -1.230608582496643
H 4.628902912139893 0.0919351801276207 2.7161221504211426
H 5.478353977203369 3.0554792881011963 1.4323179721832275
H 9.392807960510254 1.5435093641281128 -0.23744408786296844
H 8.441085815429688 -1.7098997831344604 4.665091514587402
H 11.532015800476074 -0.8206513524055481 3.393645763397217
H 10.53269100189209 -2.69321870803833 -0.3796081840991974
