17
Generated by QM7 dataset
N 6.264593124389648 -2.532705545425415 3.716259717941284
C 4.798336029052734 -2.1172492504119873 1.4059184789657593
C 4.413928031921387 0.6917909383773804 0.8199899792671204
C 6.8564934730529785 2.0855584144592285 0.15913383662700653
N 8.517732620239258 2.2722067832946777 2.319676637649536
C 9.466696739196777 4.5013275146484375 3.2099077701568604
O 9.081438064575195 6.599093914031982 2.319638729095459
H 6.386726379394531 -4.433372974395752 4.033337116241455
H 5.267195701599121 -1.829708456993103 5.213490009307861
H 2.9488232135772705 -3.023183822631836 1.6224055290222168
H 5.7559733390808105 -3.04325270652771 -0.17825786769390106
H 3.4789857864379883 1.623274803161621 2.419605255126953
H 3.125040054321289 0.8390951156616211 -0.7964817881584167
H 6.411576271057129 3.9775712490081787 -0.5502504706382751
H 7.889001846313477 1.0781643390655518 -1.3254350423812866
H 8.88192081451416 0.6327369809150696 3.2583413124084473
H 10.660871505737305 4.213030815124512 4.892463207244873
