12
Generated by QM7 dataset
N 1.8728886842727661 0.01585480198264122 0.1449420005083084
C 4.6292243003845215 0.05610596761107445 -0.13432173430919647
C 5.820564270019531 1.9267269372940063 1.7353166341781616
O 7.439492702484131 -0.04665733873844147 2.752537250518799
C 5.858755588531494 -1.954411506652832 1.5557547807693481
H 1.0285590887069702 -1.4815075397491455 -0.7253902554512024
H 1.0006855726242065 1.5880502462387085 -0.5476426482200623
H 5.341424465179443 0.15371032059192657 -2.0700626373291016
H 4.6027679443359375 2.71319317817688 3.2133657932281494
H 6.925430774688721 3.4428164958953857 0.8664394617080688
H 6.994349002838135 -3.3603110313415527 0.5541433095932007
H 4.659800052642822 -2.8962888717651367 2.955418348312378
