16
Generated by QM7 dataset
C 5.903731346130371 -2.185676097869873 -0.8169664144515991
C 4.607945919036865 0.12766990065574646 0.29056429862976074
C 6.3452277183532715 2.3636882305145264 0.3407365083694458
C 6.610261917114258 4.034830093383789 -1.9490067958831787
C 5.258559703826904 4.992618560791016 0.3584243655204773
O 6.588832378387451 6.825161457061768 1.843522310256958
H 4.615391731262207 -3.802506923675537 -0.8163049817085266
H 7.580352783203125 -2.692028284072876 0.28272193670272827
H 6.505023002624512 -1.8349807262420654 -2.7641592025756836
H 3.9961659908294678 -0.2909611463546753 2.2259461879730225
H 2.898613214492798 0.541028618812561 -0.8084626197814941
H 8.009698867797852 2.0113110542297363 1.4804303646087646
H 5.476521015167236 3.6236443519592285 -3.605635166168213
H 8.46088981628418 4.791306018829346 -2.3840973377227783
H 3.221945285797119 5.199883937835693 0.23415596783161163
H 8.3992280960083 6.515454292297363 1.8841702938079834
