17
Generated by QM7 dataset
C 4.627183437347412 1.616244912147522 3.7126505374908447
O 4.676788806915283 1.4157450199127197 1.0374785661697388
C 5.5701189041137695 3.6864211559295654 -0.12018658220767975
O 8.15439510345459 4.149630546569824 0.48102977871894836
C 9.30064582824707 6.26206111907959 -0.5175960063934326
C 12.008926391601562 6.513791561126709 0.29320991039276123
C 8.220138549804688 7.96916389465332 -2.0519025325775146
H 3.8480494022369385 -0.13802559673786163 4.479066848754883
H 3.415585517883301 3.184056282043457 4.306307792663574
H 6.535825729370117 1.8636479377746582 4.468862056732178
H 4.372297286987305 5.268594264984131 0.48114317655563354
H 5.373020648956299 3.4200830459594727 -2.164057731628418
H 12.129433631896973 6.601909637451172 2.356431722640991
H 12.901576042175293 8.219023704528809 -0.466989129781723
H 13.100715637207031 4.880765914916992 -0.35644015669822693
H 6.277386665344238 7.8530402183532715 -2.686434745788574
H 9.291178703308105 9.578662872314453 -2.745847702026367
