20
Generated by QM7 dataset
C 5.863687992095947 -1.8722273111343384 -1.049837350845337
N 5.036517143249512 -0.03238990530371666 0.8190640211105347
C 6.327785968780518 2.4061694145202637 0.5818277597427368
C 4.99114465713501 4.313300132751465 2.304804563522339
C 9.144025802612305 2.281466245651245 1.1555486917495728
C 9.968229293823242 1.3991154432296753 3.732435941696167
C 10.869156837463379 2.952772617340088 -0.5881961584091187
H 4.714224338531494 -3.5831851959228516 -0.8750943541526794
H 7.839245319366455 -2.422628879547119 -0.7830836176872253
H 5.612127780914307 -1.1572872400283813 -2.975109338760376
H 5.275265216827393 -0.7346121668815613 2.5920050144195557
H 6.048333168029785 3.093160390853882 -1.357749342918396
H 4.994357109069824 3.7145211696624756 4.286824703216553
H 3.015228033065796 4.554844856262207 1.731877326965332
H 5.901010036468506 6.1702961921691895 2.1987719535827637
H 9.289440155029297 -0.5170668363571167 4.10943603515625
H 9.2494535446167 2.659789562225342 5.205099582672119
H 12.030526161193848 1.361698865890503 3.9112796783447266
H 10.314087867736816 3.5941834449768066 -2.456965208053589
H 12.882319450378418 2.874424695968628 -0.1998196393251419
