14
Generated by QM7 dataset
C 1.6881868839263916 -0.20900371670722961 0.060263365507125854
C 4.553673267364502 -0.030651357024908066 -0.04367157071828842
C 5.424251079559326 2.660318613052368 -0.06425068527460098
N 5.781994819641113 4.0263261795043945 1.9852707386016846
C 6.580045223236084 6.419003009796143 1.319746971130371
C 6.825067043304443 6.85335636138916 -1.2346903085708618
S 6.0317792892456055 4.1784868240356445 -2.8768246173858643
H 1.0946805477142334 -2.1900224685668945 0.11610477417707443
H 0.8185348510742188 0.6743298768997192 -1.5981414318084717
H 0.9392316937446594 0.7332326173782349 1.7452754974365234
H 5.255782127380371 -1.0460957288742065 -1.7065738439559937
H 5.355672836303711 -0.9804277420043945 1.613429307937622
H 6.961486339569092 7.790150165557861 2.7907097339630127
H 7.414491653442383 8.560969352722168 -2.184844732284546
