19
Generated by QM7 dataset
C 1.9302040338516235 0.2402219921350479 0.376376748085022
C 4.736617565155029 -0.13037221133708954 -0.14579236507415771
C 5.369051933288574 -2.846834659576416 -0.9788214564323425
C 5.277267932891846 -2.8000826835632324 -3.87361741065979
C 6.132558345794678 -0.17897596955299377 -4.539651393890381
C 4.299145698547363 1.9793180227279663 -4.710841655731201
C 5.714323997497559 1.4934505224227905 -2.282505750656128
H 1.5141431093215942 2.2296500205993652 0.7661138772964478
H 1.348697543144226 -0.8725054264068604 2.021836996078491
H 0.7535094022750854 -0.3515268564224243 -1.2191946506500244
H 5.7801432609558105 0.3071938753128052 1.5902234315872192
H 4.117240905761719 -4.27828311920166 -0.16667383909225464
H 7.305718898773193 -3.29528546333313 -0.3844269812107086
H 6.514944076538086 -4.245005130767822 -4.682873725891113
H 3.351013660430908 -3.1377768516540527 -4.553332805633545
H 7.927665710449219 -0.08617151528596878 -5.51064920425415
H 4.852967739105225 3.6125328540802 -5.821131229400635
H 2.299607753753662 1.5633137226104736 -4.826266288757324
H 7.2088704109191895 2.775327444076538 -1.7291371822357178
