15
Generated by QM7 dataset
C 1.8723973035812378 -0.059242915362119675 0.12523214519023895
C 4.7321953773498535 -0.07222533226013184 0.17321230471134186
C 5.880581855773926 2.104625701904297 1.6691572666168213
O 8.118263244628906 1.054202675819397 2.791541337966919
C 7.866514205932617 -1.5024267435073853 2.766181230545044
N 9.567230224609375 -2.9167733192443848 3.725198268890381
N 5.719048500061035 -2.2096946239471436 1.558173656463623
H 1.152411699295044 -1.7092194557189941 -0.8963159918785095
H 1.162257194519043 1.6420397758483887 -0.812487781047821
H 1.078428864479065 -0.12241645902395248 2.0364632606506348
H 5.49301815032959 -0.09546896070241928 -1.7541193962097168
H 4.655037879943848 2.790105104446411 3.1903300285339355
H 6.393019199371338 3.692676067352295 0.44899892807006836
H 9.027146339416504 -4.757593631744385 3.5378129482269287
H 5.752345085144043 -3.904287576675415 0.6761817932128906
