14
Generated by QM7 dataset
C 1.8571850061416626 -0.01105489768087864 0.3485410809516907
C 4.661708831787109 0.0893651470541954 -0.20443058013916016
C 6.238836288452148 1.9742724895477295 1.386888861656189
N 8.070623397827148 -0.10310345888137817 1.732954502105713
O 8.92502498626709 -0.3370893597602844 4.254037857055664
C 6.311193943023682 -1.9168248176574707 1.1186801195144653
O 6.1287407875061035 -4.123382568359375 1.6780956983566284
H 0.9858890175819397 -1.6255046129226685 -0.608680784702301
H 0.9212225675582886 1.7057045698165894 -0.32930368185043335
H 1.4781816005706787 -0.19033321738243103 2.374951124191284
H 5.047855377197266 0.1881600320339203 -2.2411396503448486
H 5.3823370933532715 2.6229398250579834 3.154973268508911
H 7.021390914916992 3.5725271701812744 0.34130343794822693
H 10.458934783935547 -1.331255316734314 4.007655620574951
