17
Generated by QM7 dataset
N 1.4274046421051025 -0.10782777518033981 -0.07738428562879562
C 4.154071807861328 -0.038758281618356705 0.37420356273651123
C 5.888329982757568 -1.6601622104644775 -1.1932486295700073
C 5.089240550994873 -2.7589244842529297 -3.6795802116394043
C 5.405032634735107 -0.5831505656242371 -5.571517467498779
N 5.1647725105285645 1.7846195697784424 -4.121568202972412
C 5.924102306365967 1.159403681755066 -1.5096644163131714
H 0.747367799282074 1.6859947443008423 -0.28368568420410156
H 0.4851115942001343 -0.9111314415931702 1.390895128250122
H 4.670042514801025 0.2259545475244522 2.3475122451782227
H 7.489476203918457 -2.5741660594940186 -0.32516518235206604
H 6.273361682891846 -4.3719000816345215 -4.205831050872803
H 3.1229615211486816 -3.401582717895508 -3.6127405166625977
H 7.305057525634766 -0.6710606217384338 -6.3970818519592285
H 4.029821872711182 -0.6840808391571045 -7.111058235168457
H 6.2865519523620605 3.1362082958221436 -4.903820514678955
H 7.532542705535889 2.1933484077453613 -0.7662650346755981
