20
Generated by QM7 dataset
C 3.640103816986084 -1.030392050743103 -2.5975985527038574
C 4.538990020751953 -0.10344360768795013 -0.027268748730421066
C 6.000598430633545 2.3629324436187744 -0.20180384814739227
N 8.41812515258789 2.12017822265625 -1.5515785217285156
C 4.632701396942139 4.788112640380859 -1.1191903352737427
C 5.986577033996582 6.28483247756958 0.9832811951637268
C 6.516059398651123 3.7535629272460938 2.329900026321411
H 2.511937379837036 -2.7504584789276123 -2.378239154815674
H 5.229249954223633 -1.4737974405288696 -3.844099760055542
H 2.4673776626586914 0.38920798897743225 -3.539419174194336
H 5.700604438781738 -1.5699844360351562 0.86517333984375
H 2.876711130142212 0.1483812928199768 1.1856708526611328
H 9.532099723815918 3.6913909912109375 -1.529052972793579
H 8.2327241897583 1.640868067741394 -3.4078752994537354
H 2.57616925239563 4.73145866394043 -0.858370304107666
H 5.015087604522705 5.417825698852539 -3.051964282989502
H 7.693075180053711 7.2686238288879395 0.3459710478782654
H 4.8040242195129395 7.617920875549316 2.028620958328247
H 8.40206241607666 3.558637857437134 3.157259941101074
H 5.126014232635498 3.3382577896118164 3.8124656677246094
