13
Generated by QM7 dataset
C 1.9871982336044312 -0.04873603582382202 0.1770673394203186
C 4.501724720001221 0.10574907809495926 0.009259657934308052
C 6.122467041015625 2.3848721981048584 0.05104150250554085
C 8.326719284057617 1.4511017799377441 -1.4969465732574463
O 8.48802661895752 -1.209764838218689 -1.0524829626083374
C 6.1669511795043945 -2.107970714569092 -0.38748833537101746
O 5.589753150939941 -4.3189311027526855 -0.13889487087726593
H 1.0333400964736938 -1.8673707246780396 0.07328358292579651
H 0.8245630860328674 1.6217252016067505 0.4190656542778015
H 6.712250709533691 2.7819414138793945 1.9976861476898193
H 5.251038551330566 4.0755534172058105 -0.7533960342407227
H 8.049004554748535 1.764607310295105 -3.5251517295837402
H 10.096863746643066 2.355940580368042 -0.9284224510192871
