15
Generated by QM7 dataset
C 1.8458466529846191 0.8103901743888855 0.5139110088348389
C 4.614711284637451 0.5654249787330627 -0.2681332528591156
C 4.92902946472168 -0.3845781683921814 -2.9851059913635254
C 4.05557918548584 -3.0105793476104736 -3.2812259197235107
C 3.3409035205841064 -5.149144649505615 -3.536036729812622
C 5.864670753479004 3.1209394931793213 0.058997251093387604
O 6.964018821716309 4.275089740753174 -1.6243518590927124
H 1.6848231554031372 1.581284999847412 2.429072856903076
H 0.8896641731262207 -1.023400068283081 0.49716803431510925
H 0.8210482001304626 2.0877504348754883 -0.7533582448959351
H 5.571044921875 -0.7276579737663269 1.0411635637283325
H 6.926016330718994 -0.2910934090614319 -3.5362823009490967
H 3.9025301933288574 0.8455012440681458 -4.300846576690674
H 2.704935073852539 -7.045636177062988 -3.772554874420166
H 5.783261299133301 3.91076922416687 1.989031195640564
