21
Generated by QM7 dataset
C 1.9873871803283691 0.4323693513870239 1.6001445055007935
C 4.76267671585083 0.08904389292001724 0.9431056380271912
C 6.214099884033203 2.5778887271881104 1.1381253004074097
C 8.980130195617676 2.1828415393829346 0.45226815342903137
C 10.739824295043945 4.492030143737793 0.8764739036560059
C 12.809981346130371 2.598562479019165 1.6636015176773071
C 10.66578483581543 0.7639784812927246 2.3910138607025146
H 0.9853788018226624 -1.3698058128356934 1.4409350156784058
H 1.0845327377319336 1.7844116687774658 0.32163140177726746
H 1.7653443813323975 1.121212363243103 3.5377373695373535
H 4.922679901123047 -0.6714574694633484 -0.9781789183616638
H 5.593626976013184 -1.3205217123031616 2.214343309402466
H 6.041605472564697 3.343057870864868 3.056121826171875
H 5.37816047668457 3.9695398807525635 -0.1493639498949051
H 9.18248176574707 1.417937159538269 -1.4702447652816772
H 10.149681091308594 5.755860328674316 2.408966302871704
H 11.15501594543457 5.622672080993652 -0.8018108010292053
H 13.976414680480957 1.9342669248580933 0.08651166409254074
H 14.04096794128418 3.2012906074523926 3.207942485809326
H 11.019805908203125 -1.229455828666687 1.9812833070755005
H 10.051755905151367 0.9479055404663086 4.3613176345825195
