11
Generated by QM7 dataset
C 1.6653966903686523 0.15123477578163147 -0.01492883637547493
C 4.470279216766357 0.06867264956235886 -0.0006614041631110013
C 6.189968109130859 2.030076026916504 0.006935294717550278
N 8.705930709838867 1.3349592685699463 0.019709844142198563
C 8.865877151489258 -1.1443803310394287 0.021391699090600014
S 6.0560622215271 -2.7589056491851807 0.007785671856254339
H 0.9836969375610352 2.105343818664551 9.448630589758977e-05
H 0.8927255272865295 -0.8004879951477051 1.6518663167953491
H 0.9115660786628723 -0.7684949040412903 -1.708236813545227
H 5.711111545562744 4.0210161209106445 0.003684965893626213
H 10.661476135253906 -2.122748374938965 0.030745843425393105
