15
Generated by QM7 dataset
C 1.7724497318267822 0.27128908038139343 0.35555195808410645
C 4.532073497772217 -0.2505210041999817 -0.24222509562969208
O 4.811450481414795 -2.8356664180755615 -1.0806587934494019
C 5.089013576507568 -2.840352773666382 -3.792189121246338
C 5.957021713256836 -0.2723095417022705 -4.513894557952881
O 4.073096752166748 1.666020393371582 -4.545906066894531
C 5.562068939208984 1.3791788816452026 -2.3032360076904297
H 1.4934883117675781 2.234053134918213 0.9428032636642456
H 1.117470622062683 -0.9788781404495239 1.8683533668518066
H 0.5591888427734375 -0.09822796285152435 -1.2808563709259033
H 5.666967391967773 -0.039835426956415176 1.4757059812545776
H 6.462863445281982 -4.297766208648682 -4.299731731414795
H 3.2629899978637695 -3.307096242904663 -4.645759582519531
H 7.626537799835205 -0.13046669960021973 -5.663641452789307
H 6.932082176208496 2.788177490234375 -1.7772496938705444
