17
Generated by QM7 dataset
C 1.8845860958099365 0.05117378383874893 0.2015203982591629
C 4.6814374923706055 -0.03499772772192955 -0.01946417987346649
C 6.155972003936768 -2.0970101356506348 -0.10000430792570114
C 8.893580436706543 -1.4203181266784668 -0.3491269052028656
C 8.877763748168945 1.4191275835037231 -0.59730464220047
C 10.859273910522461 2.855848550796509 -1.229984998703003
C 6.209999084472656 2.3500444889068604 -0.19367803633213043
H 1.0652953386306763 -1.8490970134735107 0.249689519405365
H 1.065767765045166 1.0533900260925293 -1.4133261442184448
H 1.3262665271759033 1.03262197971344 1.9346259832382202
H 5.489560127258301 -4.025135517120361 5.6691784266149625e-05
H 9.927751541137695 -2.012255907058716 1.3423858880996704
H 9.71200180053711 -2.317389965057373 -2.023329734802246
H 12.709088325500488 2.0306618213653564 -1.5611027479171753
H 10.675346374511719 4.888211250305176 -1.4434484243392944
H 5.582137584686279 3.5138134956359863 -1.7826731204986572
H 6.06840181350708 3.4226908683776855 1.5700411796569824
