11
Generated by QM7 dataset
O 1.8786523342132568 -0.10973639786243439 0.2764858305454254
C 4.177220821380615 -0.018613802269101143 0.08144719898700714
C 5.58383846282959 2.3696787357330322 -0.10775218158960342
C 8.082094192504883 2.101639986038208 -0.31089773774147034
N 9.295373916625977 -0.18322785198688507 -0.3457631766796112
N 8.139050483703613 -2.4718563556671143 -0.17837125062942505
C 5.69291353225708 -2.426786184310913 0.026928598061203957
H 4.585212707519531 4.145397663116455 -0.07602368295192719
H 9.330560684204102 3.722684860229492 -0.46438130736351013
H 11.219398498535156 -0.16404712200164795 -0.5085064172744751
H 4.584664344787598 -4.179828643798828 0.17415715754032135
