20
Generated by QM7 dataset
C 4.091918468475342 -1.7501509189605713 -0.8688393831253052
C 3.5929551124572754 0.9471874237060547 -0.015193398110568523
C 5.979925155639648 2.471761703491211 0.09008324146270752
C 6.602400779724121 4.352322578430176 -1.9588900804519653
C 5.809755325317383 5.272279262542725 0.6228159666061401
C 7.666070938110352 6.472311973571777 2.3788628578186035
N 7.537852764129639 9.192855834960938 2.019909381866455
H 2.3232104778289795 -2.816126585006714 -0.9594517350196838
H 5.359395503997803 -2.718144178390503 0.45175793766975403
H 4.975403308868408 -1.7870572805404663 -2.7375707626342773
H 2.73363995552063 0.9108101725578308 1.8681832551956177
H 2.2161762714385986 1.8227920532226562 -1.2944056987762451
H 7.523472309112549 1.4439964294433594 0.9646106958389282
H 5.280045986175537 4.6097412109375 -3.5025885105133057
H 8.566317558288574 4.548665523529053 -2.512598752975464
H 3.9328792095184326 6.0745625495910645 0.8298354148864746
H 9.595046997070312 5.806447982788086 2.0254085063934326
H 7.178049087524414 6.0057196617126465 4.331441402435303
H 8.04267406463623 9.612752914428711 0.2092115730047226
H 8.8391752243042 10.039509773254395 3.1542553901672363
