17
Generated by QM7 dataset
C 1.8773295879364014 -0.20898480713367462 0.5769333839416504
C 4.521623134613037 0.3776428699493408 -0.35292524099349976
C 6.077567100524902 2.2428781986236572 1.219062328338623
C 7.737861633300781 -0.04669513180851936 1.8579976558685303
C 10.48214054107666 0.031312763690948486 1.0023295879364014
O 11.829893112182617 1.8956977128982544 2.407076358795166
O 6.240782737731934 -1.6710469722747803 0.22737184166908264
H 1.060835599899292 -1.7799519300460815 -0.4934452772140503
H 0.6420533657073975 1.432714819908142 0.3349161744117737
H 1.869222640991211 -0.7275067567825317 2.580458879470825
H 4.555922031402588 0.7933448553085327 -2.3823399543762207
H 5.108950138092041 3.0827670097351074 2.8398237228393555
H 6.990021228790283 3.731698989868164 0.1138182058930397
H 7.556863784790039 -0.6609317064285278 3.830380439758301
H 10.655182838439941 0.46850091218948364 -1.013195514678955
H 11.391949653625488 -1.79433274269104 1.3420456647872925
H 11.373222351074219 3.5396649837493896 1.7251876592636108
