15
Generated by QM7 dataset
N 5.6666083335876465 -2.306788682937622 1.0915435552597046
C 4.851531505584717 -0.5081662535667419 -0.5221691131591797
S 1.880050778388977 -0.4544035494327545 -1.519736647605896
N 6.54155158996582 1.2763020992279053 -1.2591056823730469
C 9.08463191986084 1.5423945188522339 -0.40528956055641174
C 11.173383712768555 -0.04174404963850975 -1.5026912689208984
C 11.040044784545898 2.726477861404419 -2.0957441329956055
H 7.532675266265869 -2.6029653549194336 1.351683259010315
H 4.471885681152344 -3.7303004264831543 1.5420920848846436
H 5.828557968139648 2.631859302520752 -2.414314031600952
H 9.208011627197266 2.014655828475952 1.5917352437973022
H 10.708927154541016 -1.363040566444397 -2.997540235519409
H 12.655609130859375 -0.681340754032135 -0.24320775270462036
H 12.427595138549805 3.9622833728790283 -1.2338210344314575
H 10.503268241882324 3.266580581665039 -3.996959686279297
