16
Generated by QM7 dataset
C 1.0681110620498657 2.292766809463501 1.2880750894546509
C -1.6123521327972412 1.4266676902770996 0.8172120451927185
C -1.6362004280090332 0.022733405232429504 -1.6238983869552612
C 1.0249874591827393 -0.04898170009255409 -2.6525707244873047
C 2.3591530323028564 -0.024679822847247124 -0.02031455561518669
N 1.084854006767273 -2.2116787433624268 1.2879239320755005
C -1.5701923370361328 -1.4100947380065918 0.8138483762741089
H 1.4865530729293823 4.077613353729248 0.3330642282962799
H 1.5050157308578491 2.4207959175109863 3.3049609661102295
H -3.180598020553589 2.5093295574188232 1.502710223197937
H -3.221605062484741 -0.04410620778799057 -2.882739305496216
H 1.4044066667556763 -1.7741315364837646 -3.7283918857574463
H 1.464462161064148 1.6276589632034302 -3.779452323913574
H 4.419219017028809 -0.06632938981056213 -0.021731849759817123
H 1.4785972833633423 -2.1321213245391846 3.1735305786132812
H -3.1577513217926025 -2.514620780944824 1.4577536582946777
