13
Generated by QM7 dataset
C 2.197354555130005 0.15189619362354279 -0.7928345799446106
O 4.50004243850708 0.7713862061500549 -2.057817220687866
C 5.704270839691162 2.804089069366455 -0.9387592673301697
N 4.403250694274902 5.048044204711914 -0.9763081073760986
C 8.050006866455078 2.4299232959747314 -0.0590539425611496
C 9.547576904296875 4.3427605628967285 1.0667314529418945
N 10.781378746032715 5.918244361877441 1.962934136390686
H 1.520889401435852 -1.6468963623046875 -1.5548855066299438
H 0.7459694147109985 1.5822676420211792 -1.1505030393600464
H 2.499465227127075 -0.08246764540672302 1.2420413494110107
H 3.2659192085266113 5.173238754272461 -2.5219907760620117
H 5.503676414489746 6.612926483154297 -0.7708004117012024
H 8.888931274414062 0.5667288899421692 -0.1963992416858673
