19
Generated by QM7 dataset
C 2.0166778564453125 0.1635558009147644 -0.22538763284683228
C 4.830744743347168 0.09303122013807297 -0.1677320897579193
C 6.408023357391357 -1.2343502044677734 -2.1389999389648438
O 5.179777145385742 -2.278348207473755 -4.317570686340332
C 6.496009349822998 1.627602219581604 -1.9418258666992188
C 5.354803562164307 3.210947036743164 -4.020259857177734
C 8.8543119430542 2.785588502883911 -0.8282291889190674
H 1.32694673538208 1.6028468608856201 1.090749979019165
H 1.2582741975784302 -1.6627510786056519 0.38174358010292053
H 1.2254307270050049 0.5892732739448547 -2.0831964015960693
H 5.466467380523682 -0.12268102169036865 1.7748308181762695
H 8.047492980957031 -2.2702791690826416 -1.4608339071273804
H 3.372140645980835 -1.9758031368255615 -4.336052417755127
H 3.7224960327148438 2.3288984298706055 -4.929463863372803
H 6.760910987854004 3.561793565750122 -5.498649597167969
H 4.743420600891113 5.038954734802246 -3.2668261528015137
H 9.648526191711426 1.6255801916122437 0.6906003952026367
H 8.434981346130371 4.653998851776123 -0.045164454728364944
H 10.305999755859375 2.9991655349731445 -2.286644220352173
