18
Generated by QM7 dataset
C 2.246279716491699 -0.19511422514915466 -0.2259356528520584
C 5.0387468338012695 0.14783327281475067 -0.2900351583957672
N 6.49816370010376 -0.735008955001831 -2.452410936355591
C 6.352389812469482 2.0322492122650146 -2.0264856815338135
C 4.8763251304626465 3.5745491981506348 -3.909238576889038
C 8.75534725189209 3.28060245513916 -1.0949262380599976
O 10.780302047729492 2.5727486610412598 -2.717369556427002
H 1.3688420057296753 1.3439732789993286 0.8411359786987305
H 1.7757378816604614 -1.9741401672363281 0.72004234790802
H 1.3911218643188477 -0.24608013033866882 -2.1083106994628906
H 5.873760223388672 -0.20641478896141052 1.5502557754516602
H 5.345789432525635 -1.2643591165542603 -3.91029691696167
H 3.3520150184631348 2.504794120788574 -4.809617519378662
H 6.121333122253418 4.255928039550781 -5.416049480438232
H 4.036190509796143 5.2181572914123535 -2.9746367931365967
H 9.236735343933105 2.68822979927063 0.8281913995742798
H 8.591205596923828 5.342539310455322 -1.1007087230682373
H 10.516533851623535 0.7679280042648315 -3.0136406421661377
