11
Generated by QM7 dataset
C 5.408660888671875 -2.376009464263916 0.8184970617294312
C 4.452516078948975 -0.11253318935632706 0.210761159658432
C 5.837042808532715 2.196164131164551 0.07876378297805786
N 4.828703880310059 4.40249490737915 -0.5292366743087769
N 6.541438102722168 6.367677688598633 -0.531183123588562
C 8.817386627197266 5.59663200378418 0.07868819683790207
S 9.048632621765137 2.435516834259033 0.6989151835441589
H 4.1830034255981445 -4.023434638977051 0.863567054271698
H 7.378870487213135 -2.6957509517669678 1.2837287187576294
H 2.4499166011810303 0.028780529275536537 -0.22880804538726807
H 10.416038513183594 6.8633341789245605 0.1795995682477951
