14
Generated by QM7 dataset
C 1.8082222938537598 0.0733780637383461 -0.05799569562077522
C 4.687956809997559 0.2462124228477478 -0.16512426733970642
C 5.7797651290893555 -0.7710460424423218 -2.6469016075134277
C 5.428313732147217 -3.5123016834259033 -2.87064528465271
N 5.133252143859863 -5.6824822425842285 -3.0146989822387695
C 5.43558931350708 2.98348069190979 0.1973630040884018
O 6.69807767868042 4.195758819580078 -1.3222792148590088
H 1.0836822986602783 0.9051409959793091 1.6944607496261597
H 1.165507435798645 -1.8911056518554688 -0.13039110600948334
H 0.9381545186042786 1.0985922813415527 -1.6327422857284546
H 5.487424373626709 -0.8003557324409485 1.4367965459823608
H 7.809784412384033 -0.3609754741191864 -2.7485122680664062
H 4.906428337097168 0.18336012959480286 -4.266340255737305
H 4.80871057510376 3.8572332859039307 1.9859699010849
