17
Generated by QM7 dataset
C 5.566490650177002 4.4403839111328125 5.091243267059326
C 6.714593887329102 2.8291656970977783 3.513246536254883
C 6.173980712890625 2.680349826812744 0.7278091311454773
C 8.508454322814941 3.181372880935669 -0.9058780074119568
C 9.491962432861328 5.819600582122803 -0.6105515956878662
C 11.902270317077637 6.354771137237549 0.8070831298828125
O 11.834617614746094 6.266633987426758 -1.900856614112854
H 6.020988941192627 4.456106662750244 7.092085361480713
H 4.147911071777344 5.770127773284912 4.435187339782715
H 8.110590934753418 1.5198311805725098 4.265074253082275
H 4.665639400482178 4.003970623016357 0.20705729722976685
H 5.465730667114258 0.7777923941612244 0.3118804097175598
H 7.990782737731934 2.898972272872925 -2.8925092220306396
H 9.986446380615234 1.7928587198257446 -0.47364094853401184
H 8.057621955871582 7.26954984664917 -0.7477457523345947
H 12.848663330078125 4.822127342224121 1.7773252725601196
H 12.121553421020508 8.188088417053223 1.6885647773742676
