15
Generated by QM7 dataset
C 1.5909225940704346 0.4882107377052307 -0.5694500803947449
C 4.317627429962158 0.10043894499540329 0.13938620686531067
C 4.900740146636963 0.3211400508880615 2.927885055541992
O 4.33257532119751 -1.9951728582382202 4.164219379425049
C 5.8611555099487305 -1.7406834363937378 -1.417332410812378
N 6.213665008544922 0.9753065705299377 -1.7041361331939697
H 1.2905884981155396 0.36371558904647827 -2.6139447689056396
H 0.9423686265945435 2.3530113697052 0.0506257638335228
H 0.3989967703819275 -0.944560706615448 0.329114705324173
H 3.8056061267852783 1.839572787284851 3.809272050857544
H 6.904681205749512 0.7240674495697021 3.2591540813446045
H 2.531477212905884 -2.289781093597412 3.9669320583343506
H 4.966653823852539 -2.7023651599884033 -2.9882240295410156
H 7.373767852783203 -2.7827539443969727 -0.5094890594482422
H 7.8462371826171875 1.5370653867721558 -0.8396809101104736
