15
Generated by QM7 dataset
C 2.1437621116638184 0.29309651255607605 0.06508217006921768
C 4.965784549713135 -0.253053218126297 -0.08904389292001724
C 5.600864887237549 -1.5847054719924927 -2.4502756595611572
C 6.115550518035889 -2.685546398162842 -4.366533279418945
C 6.471461772918701 2.1475791931152344 -0.2066037654876709
C 7.158981800079346 3.5476584434509277 2.180800676345825
O 8.958076477050781 2.005831003189087 0.8670252561569214
H 1.6916072368621826 1.331841230392456 1.7975075244903564
H 1.047210693359375 -1.463120460510254 0.06357038766145706
H 1.4978346824645996 1.4398390054702759 -1.5353457927703857
H 5.529924392700195 -1.4016287326812744 1.540542483329773
H 6.586357116699219 -3.6626293659210205 -6.0643391609191895
H 6.206616401672363 3.245377779006958 -1.914481520652771
H 6.461937427520752 2.860459566116333 3.977231025695801
H 7.407405376434326 5.5761284828186035 2.0784718990325928
