16
Generated by QM7 dataset
C 2.4495387077331543 -0.6444154977798462 -0.8643985390663147
C 5.268896579742432 -0.8197820782661438 -0.3332532048225403
C 6.463864803314209 1.8049719333648682 -0.09769883751869202
C 9.26413631439209 1.6646409034729004 0.43066859245300293
C 10.205692291259766 2.054226875305176 2.7577908039093018
C 10.946786880493164 1.1742379665374756 -1.6277345418930054
N 12.30472469329834 0.7808159589767456 -3.3022396564483643
H 1.6276777982711792 -2.5374486446380615 -0.9996651411056519
H 2.09255051612854 0.3400373160839081 -2.64811110496521
H 1.4710384607315063 0.3734287917613983 0.6476847529411316
H 6.175587177276611 -1.8905764818191528 -1.857865333557129
H 5.561029434204102 -1.8888757228851318 1.4183906316757202
H 5.506019592285156 2.858569860458374 1.4114176034927368
H 6.144350051879883 2.888106346130371 -1.838212251663208
H 8.981395721435547 2.449481964111328 4.356895923614502
H 12.225640296936035 1.9773149490356445 3.1313328742980957
