20
Generated by QM7 dataset
C 1.5487817525863647 0.38149791955947876 -2.1872446537017822
C 4.266321182250977 1.139145851135254 -2.220069169998169
C 5.361398696899414 2.5832746028900146 -0.44066524505615234
C 8.096210479736328 3.3545284271240234 -0.4738299250602722
N 8.423359870910645 6.112224578857422 -0.4511154294013977
C 11.106827735900879 6.726820468902588 -0.14550891518592834
C 7.469482898712158 7.273423671722412 -2.778369903564453
H 0.5676737427711487 1.211087703704834 -3.8060975074768066
H 0.5863253474235535 0.9906133413314819 -0.4603750705718994
H 1.3925580978393555 -1.6765838861465454 -2.3168041706085205
H 5.377782821655273 0.4678395092487335 -3.812692642211914
H 4.255908966064453 3.270700216293335 1.1502763032913208
H 9.087409973144531 2.503622531890869 -2.0851237773895264
H 8.947872161865234 2.5556657314300537 1.2379406690597534
H 11.820256233215332 5.9992756843566895 1.657327651977539
H 11.390305519104004 8.77738094329834 -0.10605143010616302
H 12.267629623413086 5.940883159637451 -1.672653317451477
H 5.42498779296875 7.012811660766602 -2.9654150009155273
H 8.388286590576172 6.507404327392578 -4.469636917114258
H 7.779681205749512 9.32154655456543 -2.745356321334839
