16
Generated by QM7 dataset
N 1.9477028846740723 0.03416624665260315 0.4418368637561798
C 4.686256408691406 0.05194856971502304 -0.01931300200521946
C 5.956851482391357 1.9655230045318604 1.8120017051696777
O 4.435697555541992 2.82039737701416 3.913792848587036
C 7.9154582023620605 -0.1205834224820137 2.417280912399292
C 5.955226421356201 -2.0998446941375732 1.5353080034255981
O 6.895667552947998 -4.225351810455322 0.11308120936155319
H 1.0978175401687622 -1.5741230249404907 -0.21193279325962067
H 1.0255544185638428 1.4864397048950195 -0.4352228343486786
H 5.258370876312256 0.1872340589761734 -1.9999349117279053
H 6.785212993621826 3.6028952598571777 0.8554790019989014
H 2.8520123958587646 1.8891781568527222 3.6780683994293213
H 9.624129295349121 -0.025001076981425285 1.2532663345336914
H 8.470999717712402 -0.26512858271598816 4.402532577514648
H 4.808257102966309 -2.7897837162017822 3.1241331100463867
H 8.04263687133789 -3.523885726928711 -1.1377663612365723
