14
Generated by QM7 dataset
C 6.485483169555664 -1.8725485801696777 2.6332011222839355
O 6.242823600769043 -0.9912180304527283 0.10559789836406708
C 6.585544586181641 1.6619007587432861 -0.08501877635717392
C 9.320582389831543 2.5139214992523193 0.21548546850681305
C 11.225029945373535 1.353176236152649 -1.549103021621704
O 9.934366226196289 4.121964931488037 1.7823330163955688
H 6.0897746086120605 -3.901679754257202 2.651493549346924
H 5.124691486358643 -0.9270996451377869 3.8737306594848633
H 8.41033935546875 -1.5774677991867065 3.329754114151001
H 5.393013954162598 2.6479787826538086 1.2934798002243042
H 5.959591388702393 2.253082752227783 -1.9675450325012207
H 11.23215389251709 -0.6988207101821899 -1.3256428241729736
H 13.111713409423828 2.0706863403320312 -1.1021639108657837
H 10.76004409790039 1.8580920696258545 -3.497391700744629
