15
Generated by QM7 dataset
C -2.04105544090271 0.06969310343265533 -1.9074517488479614
C -1.1765624284744263 1.9919792413711548 0.14479081332683563
C -1.9974783658981323 -0.06893721222877502 2.0824782848358154
C -1.0531632900238037 -1.9597971439361572 0.01126276794821024
C 1.886626958847046 -2.0832340717315674 -0.07114818692207336
N 3.1312952041625977 0.028459275141358376 -0.050304509699344635
N 1.624200701713562 2.120102643966675 0.18258534371852875
H -4.087553024291992 0.014324123971164227 -2.2354326248168945
H -1.087896466255188 0.1611369401216507 -3.7393901348114014
H -2.1506595611572266 3.807816982269287 0.24020308256149292
H -1.002726435661316 -0.10030665993690491 3.8942720890045166
H -4.035226821899414 -0.14566008746623993 2.4511070251464844
H -1.9864989519119263 -3.7989919185638428 -0.040364548563957214
H 2.826406717300415 -3.9327468872070312 -0.19923382997512817
H 2.4458158016204834 3.682849407196045 -0.5998557806015015
