13
Generated by QM7 dataset
C 3.160623550415039 -0.6231182813644409 0.09750986844301224
O 1.6956323385238647 -2.9181528091430664 0.43044182658195496
C -0.3296627104282379 -1.9126485586166382 -1.1018614768981934
C -2.5956900119781494 -1.0153687000274658 0.22752302885055542
C -2.447611093521118 1.4935072660446167 0.4513610899448395
O -0.3245226740837097 2.697716236114502 -0.5195990800857544
C 1.1109132766723633 0.5764798521995544 -1.5548855066299438
H 4.952272891998291 -1.0026698112487793 -0.8616394996643066
H 3.5206353664398193 0.31233394145965576 1.9059211015701294
H -0.6976112723350525 -3.0645687580108643 -2.778369903564453
H -4.105845928192139 -2.2016444206237793 0.9081645607948303
H -3.7833640575408936 2.7565433979034424 1.3335986137390137
H 1.6723508834838867 0.9234524965286255 -3.515249729156494
