13
Generated by QM7 dataset
C 1.8256077766418457 0.0472053587436676 -0.01164071261882782
C 4.618377208709717 0.11011434346437454 -0.0054802056401968
C 6.176607608795166 2.094856023788452 0.00308025348931551
C 8.67673397064209 0.9541227221488953 0.0051022605039179325
N 8.690075874328613 -1.48112952709198 -0.000453534274129197
C 6.208921909332275 -2.177644729614258 -0.006614041514694691
N 5.5656023025512695 -4.503349781036377 -0.013946179300546646
H 1.0263102054595947 1.9549973011016846 0.0077667743898928165
H 1.118018627166748 -0.9543495178222656 1.6544363498687744
H 1.1255587339401245 -0.9182746410369873 -1.7013015747070312
H 5.761056900024414 4.080655574798584 0.006821911316365004
H 10.36635684967041 2.162583589553833 0.010317904874682426
H 3.646169900894165 -4.680549144744873 -0.01848152093589306
