11
Generated by QM7 dataset
N 1.9675828218460083 -0.09493984282016754 -0.00024566438514739275
N 4.492408275604248 0.048962805420160294 -0.0
C 5.611409664154053 2.2315776348114014 0.0
C 4.213805675506592 4.56588077545166 -3.779452163144015e-05
C 3.0763230323791504 6.5306291580200195 -1.8897260815720074e-05
C 8.319462776184082 2.0560975074768066 1.8897260815720074e-05
C 10.586944580078125 1.9191869497299194 0.0
H 1.158307671546936 -1.8313714265823364 0.00013228082389105111
H 0.8249221444129944 1.4412940740585327 0.00011338356853229925
H 2.074786901473999 8.27800178527832 -0.0
H 12.59449577331543 1.7810291051864624 -0.0
