14
Generated by QM7 dataset
C 4.9501566886901855 -0.3185889422893524 0.9423497319221497
C 7.44153356552124 -1.6905490159988403 1.3047614097595215
O 8.785128593444824 -1.8301053047180176 -1.0466625690460205
C 10.26349925994873 0.1982322782278061 -1.6093852519989014
C 11.563007354736328 -0.21712952852249146 -4.091068267822266
O 10.522618293762207 2.0852181911468506 -0.30418920516967773
H 3.862959146499634 -0.29566654562950134 2.70039963722229
H 3.8211963176727295 -1.2376383543014526 -0.5287831425666809
H 5.258333206176758 1.6339516639709473 0.33168473839759827
H 7.080898284912109 -3.635493040084839 1.9111745357513428
H 8.591791152954102 -0.7980691194534302 2.7771036624908447
H 10.161190032958984 -0.5524047613143921 -5.571025848388672
H 12.860815048217773 -1.8167259693145752 -3.941439628601074
H 12.645008087158203 1.4727013111114502 -4.588406085968018
