16
Generated by QM7 dataset
C 11.605602264404297 0.679810106754303 0.699803352355957
O 11.096943855285645 3.0495643615722656 -0.4661576449871063
N 8.542922973632812 3.641313314437866 -0.08454634994268417
C 8.10632038116455 5.862157344818115 -1.011305809020996
C 5.542377948760986 7.084847927093506 -0.8228245377540588
C 3.41715407371521 5.193874359130859 -0.4318213164806366
O 3.568615436553955 4.084189414978027 2.0129363536834717
H 13.600793838500977 0.22652147710323334 0.4167602062225342
H 10.45279312133789 -0.804891049861908 -0.16238416731357574
H 11.22776985168457 0.7875811457633972 2.7305219173431396
H 9.625925064086914 7.003835201263428 -1.8757799863815308
H 5.234012126922607 8.136820793151855 -2.5783801078796387
H 5.629059314727783 8.44374942779541 0.7361428141593933
H 3.456157922744751 3.6846635341644287 -1.847112774848938
H 1.5898833274841309 6.152551651000977 -0.563535213470459
H 5.205704212188721 3.2213406562805176 2.073218584060669
