18
Generated by QM7 dataset
C 3.5983219146728516 -1.2717667818069458 -2.2589409351348877
O 3.231337308883667 0.7588006258010864 -0.5363987684249878
C 5.523896217346191 2.0790767669677734 0.16501088440418243
C 7.15985107421875 0.685195803642273 2.009704828262329
C 6.673681259155273 3.817227840423584 -1.7760213613510132
C 5.184557914733887 4.921092510223389 0.36991387605667114
N 6.477659702301025 6.45885705947876 2.273529529571533
H 4.670307159423828 -0.6582105159759521 -3.9158337116241455
H 1.7427054643630981 -1.9294103384017944 -2.8849315643310547
H 4.56572961807251 -2.8402962684631348 -1.325964093208313
H 8.893239974975586 1.715757966041565 2.4625399112701416
H 7.730831623077393 -1.1473283767700195 1.2429295778274536
H 6.126246452331543 0.3551740348339081 3.7697579860687256
H 5.8259124755859375 3.9071788787841797 -3.637836217880249
H 8.705363273620605 4.061474800109863 -1.7892682552337646
H 3.311178207397461 5.630212306976318 -0.10299007594585419
H 8.283161163330078 5.868714809417725 2.5771141052246094
H 5.571025848388672 6.311572074890137 3.968179225921631
