13
Generated by QM7 dataset
C 1.6933647394180298 0.20106686651706696 -0.015646932646632195
C 4.507752895355225 0.12150938808917999 0.0001511780865257606
C 6.192746162414551 2.115699529647827 0.009297452867031097
C 8.732707977294922 1.2650582790374756 0.023224733769893646
O 10.795589447021484 2.7474160194396973 0.03448750078678131
C 8.939972877502441 -1.3178194761276245 0.02437746711075306
S 6.034972667694092 -2.7372682094573975 0.008106925524771214
H 1.0095672607421875 2.154174327850342 -0.0007369932136498392
H 0.9218462109565735 -0.7514495849609375 1.6514694690704346
H 0.9428032636642456 -0.7190030217170715 -1.7103155851364136
H 5.605154514312744 4.075439929962158 0.005914842709898949
H 10.305281639099121 4.517579078674316 0.03169070556759834
H 10.646867752075195 -2.4385592937469482 0.033769406378269196
