13
Generated by QM7 dataset
C 1.8181432485580444 -0.07738428562879562 -0.5221502184867859
C 4.666168689727783 -0.09167061746120453 -0.39858102798461914
O 5.834794044494629 -2.0947425365448 -0.6218143701553345
C 6.054682731628418 2.363178014755249 0.0
C 4.823299407958984 4.553654193878174 0.3533220887184143
C 8.711637496948242 2.363178014755249 0.0
C 10.960714340209961 2.363178014755249 0.0
H 1.1743136644363403 1.1421315670013428 -2.06040620803833
H 1.0282756090164185 0.5340933203697205 1.2858452796936035
H 1.1424150466918945 -1.9948893785476685 -0.9053488969802856
H 2.78216814994812 4.709972381591797 0.3823104798793793
H 5.859247207641602 6.305619239807129 0.6366109251976013
H 12.97325325012207 2.3349077701568604 -0.003458198858425021
