13
Generated by QM7 dataset
C 2.1357874870300293 -0.4774959981441498 -0.4307630658149719
O 4.535040378570557 0.0640428215265274 0.6471745371818542
C 5.468886375427246 2.5294928550720215 0.0
C 4.469636917114258 4.452194690704346 1.905977725982666
C 8.197650909423828 2.5294928550720215 0.0
N 10.3727445602417 2.5294928550720215 0.0
H 1.5775623321533203 -2.3782958984375 0.15722522139549255
H 2.2433128356933594 -0.43648895621299744 -2.4943439960479736
H 0.7056804299354553 0.8576332926750183 0.2353842854499817
H 4.809542179107666 3.044424295425415 -1.8974173069000244
H 5.003182411193848 3.928117036819458 3.838071584701538
H 2.4035804271698 4.538630962371826 1.864139199256897
H 5.202321529388428 6.349649906158447 1.5231003761291504
