16
Generated by QM7 dataset
C 5.194460391998291 -1.0200175046920776 2.933497428894043
C 5.114638328552246 -0.43801963329315186 0.12065901607275009
N 5.7347331047058105 2.189493417739868 -0.42201364040374756
O 3.7228739261627197 3.8415298461914062 0.22157038748264313
C 8.077993392944336 3.316167116165161 -0.46999379992485046
C 10.316695213317871 1.6167930364608765 -0.8986214399337769
O 8.31806468963623 5.6173810958862305 -0.1838514506816864
H 4.746368408203125 -3.01141095161438 3.2656924724578857
H 3.820610523223877 0.1299186646938324 3.9684247970581055
H 7.064438819885254 -0.6344566345214844 3.727976083755493
H 3.226064920425415 -0.8191584944725037 -0.6363086104393005
H 6.457212924957275 -1.662259817123413 -0.8649654388427734
H 4.5996880531311035 5.4690752029418945 0.3898316025733948
H 9.948161125183105 0.3029041886329651 -2.447988986968994
H 10.750142097473145 0.5810151696205139 0.8332747220993042
H 11.953387260437012 2.7679007053375244 -1.4195433855056763
