17
Generated by QM7 dataset
C 4.547663688659668 -0.9198997616767883 -2.821417808532715
C 4.6999945640563965 0.03439301624894142 -0.11771103739738464
C 6.145238399505615 2.515338897705078 -0.006481760647147894
C 4.808748245239258 4.920431137084961 -0.9843583703041077
N 5.927220344543457 6.324743270874023 1.1653752326965332
C 6.128173828125 3.9048922061920166 2.561145782470703
H 3.5383987426757812 -2.72349214553833 -2.893321990966797
H 6.437900066375732 -1.2043224573135376 -3.616349935531616
H 3.5483009815216064 0.42713481187820435 -4.0343194007873535
H 5.657594203948975 -1.3818055391311646 1.049289345741272
H 2.7861745357513428 0.2595727741718292 0.6404848694801331
H 8.072796821594238 2.3168041706085205 -0.7601801156997681
H 2.738213062286377 4.861641883850098 -0.9311814308166504
H 5.405013561248779 5.5769219398498535 -2.851426601409912
H 7.645453929901123 7.093994140625 0.7459883093833923
H 7.842231273651123 3.7009341716766357 3.698364019393921
H 4.485623836517334 3.519350290298462 3.7633328437805176
