15
Generated by QM7 dataset
C 1.8137212991714478 -0.008636048063635826 0.09320129454135895
C 4.6174702644348145 0.08617151528596878 0.055274490267038345
C 6.215441703796387 2.1505651473999023 -0.11995981633663177
C 8.729419708251953 1.2423248291015625 -0.03771893307566643
C 8.600049018859863 -1.3490376472473145 0.18181055784225464
N 6.112697124481201 -2.0212509632110596 0.2184145450592041
N 5.248808860778809 -4.530561923980713 0.3743736445903778
H 1.0107011795043945 1.8988345861434937 0.09845472872257233
H 1.1300750970840454 -0.9858323335647583 1.784109354019165
H 1.0942270755767822 -0.9935235381126404 -1.5783559083938599
H 5.62692403793335 4.10410737991333 -0.27202609181404114
H 10.44434642791748 2.354749917984009 -0.11410166323184967
H 10.081046104431152 -2.7479074001312256 0.3246549367904663
H 3.7125370502471924 -4.802890300750732 -0.7476134300231934
H 6.571220397949219 -5.763853549957275 -0.2742937505245209
