15
Generated by QM7 dataset
C 1.5145587921142578 -0.3854852318763733 0.24513527750968933
C 4.2988057136535645 0.22157038748264313 -0.21797990798950195
C 5.182460308074951 -0.9758167862892151 -2.6558022499084473
C 7.069352149963379 -2.657294988632202 -2.822910785675049
C 4.73926305770874 3.078533887863159 -0.29636573791503906
O 7.181753158569336 3.716977834701538 -0.7497299313545227
O 3.12003231048584 4.682420253753662 0.07094031572341919
H 0.8515483736991882 0.496071994304657 1.9968546628952026
H 1.216756820678711 -2.426729679107666 0.4116957485675812
H 0.3156031668186188 0.31496065855026245 -1.292799472808838
H 5.384434700012207 -0.5018923878669739 1.395392656326294
H 4.199973106384277 -0.409654825925827 -4.375566482543945
H 8.101123809814453 -3.314617395401001 -1.1759387254714966
H 7.601763725280762 -3.4505832195281982 -4.642301082611084
H 8.261750221252441 2.2493221759796143 -1.052142858505249
