13
Generated by QM7 dataset
O 2.0212700366973877 -0.01948307640850544 0.878798246383667
C 4.573137283325195 0.0 0.0
C 4.63001823425293 -1.1290924549102783 -2.641383647918701
C 3.9744153022766113 -3.887922525405884 -2.477903366088867
O 5.42872953414917 -5.5750322341918945 -3.122715711593628
C 5.484023094177246 2.5722384452819824 0.0
C 6.234773635864258 4.692322254180908 0.0
H 1.9877272844314575 0.9769884347915649 2.4262571334838867
H 5.681461811065674 -1.1631075143814087 1.3071424961090088
H 6.503908157348633 -0.9459779858589172 -3.503419876098633
H 3.2421653270721436 -0.23551656305789948 -3.8908517360687256
H 2.0640532970428467 -4.332801818847656 -1.7687647342681885
H 6.906174182891846 6.591893672943115 -0.0077667743898928165
