16
Generated by QM7 dataset
C 1.9225506782531738 0.029139576479792595 0.9514960050582886
C 4.330496311187744 0.0043652672320604324 0.17812559008598328
C 5.846869468688965 -2.3448476791381836 -0.4428384304046631
C 7.979179859161377 -1.4719265699386597 -2.120537281036377
N 10.128535270690918 -0.050909221172332764 -1.1296972036361694
C 7.998020172119141 1.3610941171646118 -2.163774251937866
C 5.87521505355835 2.310870409011841 -0.5150070786476135
H 0.9150431752204895 1.7927831411361694 1.2417768239974976
H 0.894294023513794 -1.7118650674819946 1.296465516090393
H 4.682117938995361 -3.7420167922973633 -1.4274046421051025
H 6.603704452514648 -3.194676399230957 1.284919261932373
H 8.223199844360352 -2.5094807147979736 -3.8601436614990234
H 10.110695838928223 -0.022487740963697433 0.8030391335487366
H 8.253397941589355 2.3441295623779297 -3.9348065853118896
H 6.641933917999268 3.2072432041168213 1.186294436454773
H 4.725637912750244 3.693431854248047 -1.5434715747833252
