23
Generated by QM7 dataset
C 4.979636192321777 -1.5670742988586426 -2.26358962059021
C 4.265206336975098 0.18836790323257446 -0.09473197162151337
C 5.519077301025391 2.841581106185913 -0.13464298844337463
C 4.664373397827148 4.315189838409424 -2.5017895698547363
C 4.585099220275879 4.312166213989258 2.204157590866089
C 8.451440811157227 2.725419759750366 -0.14940175414085388
C 9.662132263183594 1.357749342918396 2.0771114826202393
H 3.9744908809661865 -3.3656399250030518 -2.065338373184204
H 7.002569198608398 -1.9870848655700684 -2.2732648849487305
H 4.460188388824463 -0.7686272263526917 -4.096850872039795
H 4.705796241760254 -0.7712917327880859 1.688942790031433
H 2.20194673538208 0.4139256179332733 -0.1129489317536354
H 5.399590015411377 3.4666271209716797 -4.240262031555176
H 5.341273307800293 6.27266263961792 -2.443340301513672
H 2.6002631187438965 4.3719000816345215 -2.6456921100616455
H 5.00252103805542 3.3034870624542236 3.962207794189453
H 2.5340471267700195 4.595757484436035 2.133859872817993
H 5.471097469329834 6.180613994598389 2.3179192543029785
H 9.206840515136719 4.658628463745117 -0.1939803808927536
H 9.10914134979248 1.8297650814056396 -1.8994581699371338
H 9.235299110412598 2.2936739921569824 3.868250608444214
H 11.719854354858398 1.3537808656692505 1.857506275177002
H 9.047554969787598 -0.6112319231033325 2.1953704357147217
