11
Generated by QM7 dataset
O 5.427557945251465 -1.956849217414856 0.12341801077127457
N 4.080239772796631 -0.04748881608247757 0.09199187159538269
C 5.417655944824219 2.23067045211792 0.05754216015338898
C 4.347957611083984 4.600500583648682 0.019161822274327278
C 6.360081195831299 6.37631368637085 -0.006689630448818207
C 8.590865135192871 5.029014587402344 0.016818562522530556
N 7.9911603927612305 2.50579571723938 0.05589810013771057
H 2.3459248542785645 5.017317295074463 0.010525774210691452
H 6.195391654968262 8.415706634521484 -0.03894725441932678
H 10.541818618774414 5.642230987548828 0.009202966466546059
H 9.225472450256348 1.0477964878082275 0.0801054909825325
