17
Generated by QM7 dataset
C 4.348562240600586 -0.906123697757721 -2.963752031326294
C 4.625539302825928 0.11631264537572861 -0.28806984424591064
C 6.406814098358154 2.3898799419403076 -0.13600358366966248
C 6.769150257110596 3.303921699523926 2.5980522632598877
O 6.726442337036133 6.032780647277832 2.6085968017578125
C 5.7230544090271 6.638494491577148 0.2861045300960541
C 5.45601749420166 4.745536804199219 -1.3383229970932007
H 3.1482269763946533 -2.5915136337280273 -2.9587819576263428
H 6.187511444091797 -1.4341320991516113 -3.749878168106079
H 3.476321220397949 0.4849037230014801 -4.220231056213379
H 5.355105876922607 -1.399228811264038 0.9230367541313171
H 2.7485122680664062 0.6134051084518433 0.436847984790802
H 8.243022918701172 1.8990992307662964 -0.9612658619880676
H 8.581171035766602 2.665987730026245 3.3704776763916016
H 5.264871597290039 2.6430087089538574 3.862581253051758
H 5.327931880950928 8.616055488586426 0.009845472872257233
H 4.777586936950684 4.924248218536377 -3.252880096435547
