18
Generated by QM7 dataset
C 2.1026604175567627 -0.37412798404693604 0.03019782342016697
C 4.973362445831299 -0.24519196152687073 0.042386557906866074
C 5.90781307220459 2.493058919906616 0.05202415958046913
C 8.798564910888672 2.6590335369110107 0.020465733483433723
C 9.697734832763672 5.390821933746338 -0.07434182614088058
O 9.817429542541504 1.491504192352295 2.222658157348633
H 1.4741564989089966 -2.3447911739349365 0.021939720958471298
H 1.3247735500335693 0.5546913146972656 -1.6468396186828613
H 1.312320351600647 0.5443167090415955 1.707235336303711
H 5.704383850097656 -1.2293802499771118 -1.62688410282135
H 5.682973384857178 -1.2497326135635376 1.7080289125442505
H 5.175544261932373 3.435654401779175 1.748355746269226
H 5.138524532318115 3.491325616836548 -1.593908429145813
H 9.544515609741211 1.6423231363296509 -1.6211960315704346
H 9.044229507446289 6.446951866149902 1.5822298526763916
H 9.019927024841309 6.346456050872803 -1.7780622243881226
H 11.76596450805664 5.469717979431152 -0.05079583823680878
H 9.140586853027344 2.3667306900024414 3.689992666244507
