13
Generated by QM7 dataset
N 1.8625140190124512 0.056975241750478745 -0.2504642903804779
C 4.6061320304870605 0.057655543088912964 -0.005688075441867113
C 5.690853595733643 -2.3171632289886475 1.2989788055419922
O 6.950526237487793 -1.5766363143920898 3.6051628589630127
C 6.701686859130859 1.0114191770553589 3.6562798023223877
C 5.442902565002441 2.058459758758545 1.7544406652450562
H 1.3048747777938843 -1.4478703737258911 -1.3082195520401
H 1.3074637651443481 1.6323264837265015 -1.2029051780700684
H 5.461932182312012 0.2959499955177307 -1.8751941919326782
H 7.0794997215271 -3.252105236053467 0.07963305711746216
H 4.2296037673950195 -3.7107417583465576 1.7683868408203125
H 7.549323558807373 1.9230420589447021 5.267573833465576
H 5.0890703201293945 4.049777507781982 1.5363662242889404
