16
Generated by QM7 dataset
C 1.7476564645767212 0.17905154824256897 0.3475773334503174
C 4.582037925720215 -0.09286114573478699 0.08165506273508072
C 6.211397647857666 1.9724016189575195 1.331614375114441
C 7.695323944091797 -0.1291249841451645 2.667386293411255
N 5.6465959548950195 -1.8075419664382935 1.9498382806777954
C 5.626187324523926 -4.383106231689453 2.0090246200561523
O 7.0817484855651855 -5.709240436553955 3.223324775695801
H 0.780778169631958 -1.5397111177444458 -0.2799629271030426
H 1.0611379146575928 1.7438582181930542 -0.8192151784896851
H 1.1818914413452148 0.5525370240211487 2.3039541244506836
H 5.180986404418945 -0.5790120959281921 -1.8418405055999756
H 5.191247940063477 3.2247231006622314 2.628892421722412
H 7.317775249481201 3.130236864089966 0.024245185777544975
H 9.498916625976562 -0.6324535608291626 1.792027235031128
H 7.912132263183594 0.10053343325853348 4.7071757316589355
H 4.124251842498779 -5.192343711853027 0.8143396973609924
