15
Generated by QM7 dataset
C 1.889726161956787 0.0 0.0
C 4.618490695953369 0.0 0.0
C 6.86756706237793 0.0 0.0
C 9.524521827697754 0.0 0.0
C 10.847576141357422 1.989635944366455 0.8399643898010254
C 13.576170921325684 2.054718017578125 0.8674598932266235
C 14.897127151489258 4.040839195251465 1.7059502601623535
H 1.1451740264892578 1.9291836023330688 0.022487740963697433
H 1.145060658454895 -0.9839615225791931 1.6594818830490112
H 1.1450228691101074 -0.9450709223747253 -1.681912899017334
H 10.473958015441895 -1.6757335662841797 -0.7074567675590515
H 9.854676246643066 3.6494202613830566 1.540693759918213
H 14.588251113891602 0.4048927128314972 0.17094463109970093
H 13.988338470458984 5.735110759735107 2.4212305545806885
H 16.948387145996094 4.0081658363342285 1.6921552419662476
