12
Generated by QM7 dataset
C 1.8891781568527222 -0.1164260283112526 -0.019917713478207588
C 4.762109756469727 0.0 0.0
O 5.7044782638549805 -1.2833696603775024 -2.167081356048584
C 5.672995567321777 2.5722384452819824 0.0
C 6.423746109008789 4.692322254180908 0.0
C 7.397238254547119 7.426208019256592 -0.0012850137427449226
N 8.119851112365723 9.493814468383789 -0.004440856631845236
H 1.0813579559326172 0.8067996501922607 1.6465561389923096
H 1.2466145753860474 -2.083876609802246 -0.06253103911876678
H 1.1109700202941895 0.799429714679718 -1.707802176475525
H 5.468886375427246 -1.0094538927078247 1.6620897054672241
H 5.098764419555664 -0.38336873054504395 -3.649892568588257
