16
Generated by QM7 dataset
C 5.803216457366943 -2.2505125999450684 -0.8879823088645935
C 4.470109462738037 0.031331658363342285 0.24073220789432526
C 6.1794610023498535 2.2917275428771973 0.3913055956363678
O 8.312054634094238 1.9995380640029907 2.037332534790039
C 6.621713638305664 3.9113929271698 -1.899155855178833
C 5.090053081512451 4.914214134216309 0.2749740481376648
H 4.510473728179932 -3.8616175651550293 -0.9866827130317688
H 7.435240745544434 -2.8046560287475586 0.2562090754508972
H 6.478944778442383 -1.8445239067077637 -2.8007631301879883
H 3.796025276184082 -0.436980277299881 2.1427226066589355
H 2.7937521934509277 0.46086642146110535 -0.8999820947647095
H 7.782931804656982 1.8899718523025513 3.7938709259033203
H 5.639963150024414 3.4445738792419434 -3.633735418319702
H 8.50492000579834 4.665865898132324 -2.181877851486206
H 5.937859535217285 6.370172500610352 1.4394421577453613
H 3.0729782581329346 5.132326126098633 -5.6691784266149625e-05
