20
Generated by QM7 dataset
C 1.5764473676681519 -0.24326445162296295 0.32081881165504456
C 4.384599208831787 0.0522698238492012 0.5034041404724121
C 5.771639347076416 2.1451416015625 0.0472431518137455
C 4.594623565673828 4.66280460357666 -0.6253859400749207
C 8.648445129394531 2.229971408843994 0.2234790176153183
C 9.961634635925293 -0.1333768665790558 1.2632063627243042
N 9.684978485107422 2.804863691329956 -2.2786507606506348
H 1.137086033821106 -1.9777684211730957 -0.7194376587867737
H 0.643092691898346 1.3051204681396484 -0.6735361814498901
H 0.7600100636482239 -0.40755724906921387 2.213228464126587
H 5.333128452301025 -1.6939127445220947 1.0291259288787842
H 2.579589605331421 4.761769771575928 -0.1863836944103241
H 4.834788799285889 5.059534072875977 -2.640873432159424
H 5.490070343017578 6.186755657196045 0.4526838958263397
H 9.147899627685547 3.792963743209839 1.4923545122146606
H 9.674943923950195 -1.7818983793258667 0.0429912693798542
H 9.264930725097656 -0.5947912931442261 3.157203197479248
H 12.004032135009766 0.1744973063468933 1.4223401546478271
H 9.256671905517578 1.349793553352356 -3.466041088104248
H 11.605375289916992 2.858513116836548 -2.176907777786255
