14
Generated by QM7 dataset
C 1.84505295753479 -0.2781488001346588 -0.026361679658293724
C 4.690073490142822 0.10992536693811417 0.046166010200977325
C 5.357997417449951 2.822664976119995 0.01695084385573864
C 5.889633655548096 4.600028038024902 1.8386090993881226
N 6.396382808685303 6.8844990730285645 0.724785566329956
C 6.157577991485596 6.411368370056152 -1.7015661001205444
O 5.530113220214844 3.98520565032959 -2.2854347229003906
H 1.3952982425689697 -2.2971131801605225 -0.0016251645283773541
H 1.0202064514160156 0.54291832447052 -1.7384535074234009
H 0.9266461133956909 0.6046178936958313 1.6054924726486206
H 5.5591020584106445 -0.8433658480644226 -1.5744441747665405
H 5.460968494415283 -0.7788317203521729 1.7509257793426514
H 5.931756019592285 4.359579086303711 3.866795301437378
H 6.393491744995117 7.697761535644531 -3.268508195877075
