17
Generated by QM7 dataset
C 4.352700710296631 -0.8682913780212402 -2.850179433822632
C 4.522776126861572 0.1206401139497757 -0.158529132604599
C 6.145937442779541 2.495912551879883 -0.04966200143098831
C 5.003484725952148 4.952254295349121 -1.2110309600830078
C 5.978583335876465 6.325537204742432 1.1682853698730469
O 6.384515285491943 8.517921447753906 1.6966339349746704
C 6.288233757019043 3.798727512359619 2.588773727416992
H 3.2208869457244873 -2.5980899333953857 -2.910745143890381
H 6.231768608093262 -1.297977328300476 -3.6024227142333984
H 3.472050428390503 0.5221502184867859 -4.10335111618042
H 5.351288795471191 -1.3442000150680542 1.0488169193267822
H 2.6172139644622803 0.5004372596740723 0.5591888427734375
H 8.052311897277832 2.1161530017852783 -0.7893385887145996
H 2.942605972290039 4.996795177459717 -1.3713175058364868
H 5.868619918823242 5.571743965148926 -2.9788131713867188
H 8.085627555847168 3.581768035888672 3.5790090560913086
H 4.71647310256958 3.4059667587280273 3.872918128967285
