14
Generated by QM7 dataset
C 1.7465604543685913 -0.11960076540708542 -0.12801004946231842
C 4.543374061584473 0.11515991389751434 -0.04004329815506935
C 5.857527256011963 2.277554512023926 -0.06137830391526222
C 8.680645942687988 2.226531982421875 0.051495037972927094
O 9.628684043884277 -0.05421624332666397 -1.0599285364151
N 8.561290740966797 -2.290820598602295 -0.03785121440887451
C 6.139833450317383 -2.155837297439575 0.29903027415275574
H 1.1560399532318115 -2.091718912124634 -0.3303808271884918
H 0.9757601022720337 0.9256823658943176 -1.738264560699463
H 0.9007001519203186 0.6220978498458862 1.6076467037200928
H 4.920223236083984 4.095773696899414 -0.16627700626850128
H 9.44874382019043 3.7993321418762207 -1.050026297569275
H 9.363044738769531 2.4011428356170654 1.9979130029678345
H 5.148634433746338 -3.857422351837158 0.9791048765182495
