14
Generated by QM7 dataset
O 1.7139438390731812 0.8604868054389954 -0.8468429446220398
N 4.269609451293945 0.8660615086555481 -1.5337395668029785
C 5.5655646324157715 1.8822427988052368 0.2832510471343994
C 8.427101135253906 2.1400771141052246 0.08157947659492493
O 9.418622016906738 0.7979368567466736 -2.01187801361084
C 9.08525562286377 4.871279239654541 -0.25070998072624207
C 10.454361915588379 6.23335599899292 1.3887975215911865
H 0.9140416383743286 0.009713192470371723 -2.2767231464385986
H 4.669248580932617 2.604987382888794 2.025937557220459
H 9.253271102905273 1.3589587211608887 1.8104710578918457
H 7.963797092437744 0.3839356601238251 -3.0710318088531494
H 8.413797378540039 5.772697448730469 -1.9722316265106201
H 11.208041191101074 5.414330005645752 3.1127946376800537
H 10.886372566223145 8.201147079467773 1.0100774765014648
