19
Generated by QM7 dataset
C 1.7488659620285034 4.423962116241455 3.252898931503296
C 4.603410720825195 4.305552005767822 3.03871750831604
O 5.226302146911621 3.3060758113861084 0.6162585616111755
C 7.884598731994629 3.144712209701538 0.25350674986839294
O 9.072310447692871 5.554887771606445 0.13195957243442535
C 8.295652389526367 6.946708679199219 -2.0405263900756836
C 9.702080726623535 9.442337989807129 -2.058856725692749
H 1.1780930757522583 5.1992411613464355 5.081265926361084
H 0.9237926006317139 2.5389981269836426 3.0385472774505615
H 0.9555211067199707 5.603435039520264 1.7493950128555298
H 5.370110511779785 3.0812172889709473 4.522284507751465
H 5.392465591430664 6.207164764404297 3.2516705989837646
H 8.246859550476074 2.0973124504089355 -1.4954537153244019
H 8.742232322692871 2.067605972290039 1.799623966217041
H 6.257582664489746 7.3016180992126465 -1.9654474258422852
H 8.73724365234375 5.878975868225098 -3.758268356323242
H 9.314932823181152 10.509560585021973 -0.32934147119522095
H 9.149921417236328 10.58713436126709 -3.6879706382751465
H 11.745612144470215 9.125317573547363 -2.126622200012207
