17
Generated by QM7 dataset
C 6.470006465911865 3.0400969982147217 6.250439167022705
C 7.2156548500061035 2.6641736030578613 3.5475261211395264
N 8.904181480407715 4.101083755493164 2.5117483139038086
N 9.394207000732422 3.5210323333740234 0.06192632392048836
C 11.43717098236084 4.953179836273193 -1.176675796508789
C 10.845402717590332 7.785539627075195 -1.316477656364441
O 10.678898811340332 8.842292785644531 1.1563800573349
H 4.426608085632324 3.321798324584961 6.347212314605713
H 7.437206268310547 4.67185640335083 7.065176010131836
H 6.955137252807617 1.3399670124053955 7.3178510665893555
H 6.266445159912109 1.1122549772262573 2.519534111022949
H 9.754728317260742 1.6347453594207764 -0.17183279991149902
H 11.686482429504395 4.22130823135376 -3.095824956893921
H 13.200284957885742 4.643680572509766 -0.13519100844860077
H 9.055586814880371 8.128713607788086 -2.296905517578125
H 12.343748092651367 8.781935691833496 -2.3353612422943115
H 9.830374717712402 7.511944770812988 2.142949342727661
