16
Generated by QM7 dataset
C 1.7838070392608643 0.10240425914525986 -0.03526229038834572
C 4.644606590270996 0.04017557576298714 0.029120679944753647
C 5.960139751434326 1.8921828269958496 1.851667046546936
N 7.792720317840576 -0.12269991636276245 2.485424518585205
C 5.888689041137695 -2.0455150604248047 1.6652833223342896
C 7.12583589553833 -4.331100940704346 0.2817014753818512
O 8.699278831481934 -4.234290599822998 -1.4319021701812744
H 1.0471727848052979 -1.501387357711792 -1.1142014265060425
H 1.1146360635757446 1.838401198387146 -0.9402521252632141
H 0.9716782569885254 0.01989881694316864 1.8661234378814697
H 5.428994178771973 0.13872478902339935 -1.8925985097885132
H 4.818140029907227 2.4912827014923096 3.473524570465088
H 6.788557529449463 3.570864200592041 0.9743995070457458
H 9.34575366973877 -0.11597248911857605 1.3270412683486938
H 4.700750350952148 -2.6767592430114746 3.2470030784606934
H 6.482667922973633 -6.192330360412598 0.9718672633171082
