13
Generated by QM7 dataset
C 1.5563217401504517 -0.09240760654211044 0.05295012518763542
C 4.2484822273254395 0.7714806795120239 -0.27455830574035645
C 2.1208395957946777 2.6032299995422363 -0.5612675547599792
O 1.7584846019744873 4.486568927764893 1.3966021537780762
C 0.9506078362464905 6.492154121398926 -0.06415620446205139
C 0.8239961862564087 5.961556911468506 -2.5074210166931152
O 1.5261238813400269 3.5130574703216553 -3.0801212787628174
H 0.9048008918762207 -0.5194857120513916 1.9441502094268799
H 0.7303224802017212 -1.2505073547363281 -1.417351245880127
H 5.2453508377075195 0.19997082650661469 -1.9670915603637695
H 5.419677734375 0.930935800075531 1.394485592842102
H 0.5290477275848389 8.21227741241455 0.9262303709983826
H 0.26951274275779724 7.12489128112793 -4.074684143066406
