14
Generated by QM7 dataset
C 1.9398605823516846 -0.021901926025748253 -0.0031180481892079115
C 4.796578407287598 -0.02125941962003708 0.15898266434669495
C 5.8657097816467285 2.1097657680511475 1.7222585678100586
O 8.327040672302246 1.2123916149139404 2.367619037628174
C 8.029862403869629 -1.4697723388671875 2.544478416442871
O 5.673656940460205 -2.2256627082824707 1.451196312904358
H 1.2823870182037354 -1.656004786491394 -1.0910522937774658
H 1.2390556335449219 1.7006779909133911 -0.9058402180671692
H 1.0869704484939575 -0.1847963184118271 1.8764981031417847
H 5.631383895874023 -0.032692261040210724 -1.737187385559082
H 4.8131513595581055 2.407775640487671 3.4820094108581543
H 5.993115425109863 3.8968420028686523 0.6938318610191345
H 9.586221694946289 -2.3936781883239746 1.5469486713409424
H 8.062479019165039 -2.036973476409912 4.532130241394043
