20
Generated by QM7 dataset
C 3.1528191566467285 2.8375561237335205 -1.7272474765777588
C 5.807430744171143 2.125507354736328 -0.9234524965286255
O 7.160569190979004 4.38422155380249 -0.3535299599170685
C 9.687492370605469 3.8553247451782227 0.45850425958633423
C 11.031881332397461 6.36350154876709 1.0844382047653198
C 13.736079216003418 5.898364543914795 1.9601184129714966
N 11.042501449584961 8.07449722290039 -1.109495997428894
H 2.044513702392578 1.154358148574829 -2.1862998008728027
H 3.1990418434143066 4.079200744628906 -3.3830065727233887
H 2.1901168823242188 3.879985809326172 -0.22034206986427307
H 6.7592291831970215 1.111555814743042 -2.4567196369171143
H 5.732843399047852 0.9121140837669373 0.7509204745292664
H 10.69339370727539 2.84615421295166 -1.0473428964614868
H 9.626774787902832 2.6528542041778564 2.145198106765747
H 9.982345581054688 7.319060325622559 2.5938191413879395
H 14.86103343963623 4.96618127822876 0.4933319091796875
H 13.7596435546875 4.692718982696533 3.6418612003326416
H 14.672513961791992 7.677730560302734 2.4508235454559326
H 9.201359748840332 8.236824989318848 -1.6874687671661377
H 11.938779830932617 7.218016624450684 -2.583009958267212
