17
Generated by QM7 dataset
C 3.5355453491210938 -0.7425112128257751 2.056210994720459
O 5.92466926574707 0.4847336411476135 2.1453115940093994
C 5.963956832885742 2.8678483963012695 0.8343518972396851
C 4.566088676452637 4.886907577514648 2.347247838973999
C 8.755951881408691 3.636399984359741 0.4975837767124176
N 10.12195873260498 1.7911391258239746 -1.0621395111083984
H 3.7664132118225098 -2.649263858795166 2.814652681350708
H 2.8484976291656494 -0.8887948989868164 0.11355364322662354
H 2.1612796783447266 0.25275087356567383 3.232168674468994
H 5.08976936340332 2.6508700847625732 -1.034322738647461
H 5.2728271484375 4.977519512176514 4.29030179977417
H 2.54402494430542 4.46351432800293 2.462766647338867
H 4.7692718505859375 6.750819683074951 1.4742887020111084
H 9.682125091552734 3.723724126815796 2.348457098007202
H 8.899664878845215 5.498517036437988 -0.39092764258384705
H 9.739062309265137 0.04062911123037338 -0.3314957618713379
H 12.015786170959473 2.05915904045105 -0.8393974304199219
