15
Generated by QM7 dataset
O 4.27903938293457 3.29793119430542 -1.087537407875061
C 4.930881500244141 2.052053689956665 -3.2191107273101807
O 3.473165512084961 1.838949203491211 -5.0016326904296875
C 7.51644229888916 0.8342006802558899 -3.1472253799438477
C 9.517624855041504 2.3549954891204834 -1.8172739744186401
C 10.303674697875977 1.7381889820098877 0.8534759283065796
C 12.057831764221191 1.1707420349121094 -1.307218074798584
H 5.5826287269592285 3.261988639831543 0.21616576611995697
H 8.123309135437012 0.5643666982650757 -5.109385013580322
H 7.301107883453369 -1.037913203239441 -2.288156032562256
H 9.538884162902832 4.313885688781738 -2.4295642375946045
H 9.455584526062012 0.13793110847473145 1.8134757280349731
H 10.813806533813477 3.2834558486938477 2.100487232208252
H 13.725382804870605 2.3440163135528564 -1.5262184143066406
H 12.35495376586914 -0.7923243641853333 -1.8179354667663574
