15
Generated by QM7 dataset
C 1.78293776512146 -0.07075134664773941 0.013719411566853523
C 4.603599548339844 -0.005234541371464729 0.01702643185853958
C 5.931888103485107 2.150489330291748 0.0
C 8.58884334564209 2.150489330291748 0.0
C 10.837919235229492 2.150489330291748 0.0
C 13.566683769226074 2.150489330291748 0.0
O 14.494558334350586 4.670344829559326 -0.07832914590835571
H 1.123461127281189 -2.030435085296631 -0.07192298024892807
H 1.0192615985870361 0.9227721691131592 -1.6322886943817139
H 1.0238536596298218 0.7770175933837891 1.7411558628082275
H 5.575353622436523 -1.8161969184875488 0.03477096185088158
H 4.970414161682129 3.9642863273620605 -0.011281665414571762
H 14.320892333984375 1.1366136074066162 -1.6366918087005615
H 14.317339897155762 1.2504695653915405 1.7026621103286743
H 13.612170219421387 5.51191520690918 -1.4527647495269775
