12
Generated by QM7 dataset
O 2.255992889404297 -0.020049994811415672 0.5238509774208069
N 4.914950847625732 -0.001851931563578546 0.7669453620910645
C 6.164872646331787 -2.276061773300171 -0.05631383880972862
C 8.624993324279785 -1.2224071025848389 -0.9538392424583435
C 8.647008895874023 1.3072746992111206 -0.9984368085861206
C 6.1211066246032715 2.1223137378692627 -0.17151154577732086
O 5.225924015045166 4.221818447113037 -0.4775904715061188
H 1.892163872718811 1.7482234239578247 0.10393493622541428
H 5.117623805999756 -3.1796531677246094 -1.5928312540054321
H 6.375576972961426 -3.555651903152466 1.5492730140686035
H 10.191481590270996 -2.398799419403076 -1.5298466682434082
H 10.106954574584961 2.5779833793640137 -1.61471426486969
