15
Generated by QM7 dataset
O 2.636772632598877 1.7740181684494019 3.110186815261841
N 4.804704189300537 3.0177602767944336 2.2471301555633545
C 6.589418411254883 1.382580280303955 1.9376873970031738
N 8.986724853515625 1.8618338108062744 1.1005953550338745
C 9.622051239013672 4.262409687042236 -0.033278077840805054
C 12.394638061523438 4.22053337097168 -0.6072068214416504
C 13.386800765991211 4.385241985321045 -2.930851936340332
H 1.4372689723968506 3.1606991291046143 3.288198947906494
H 6.2970967292785645 -0.6441887617111206 2.347568988800049
H 9.928394317626953 0.3590479791164398 0.37643343210220337
H 9.225075721740723 5.818032264709473 1.2740533351898193
H 8.503654479980469 4.557830333709717 -1.751322627067566
H 13.65519905090332 4.077254295349121 1.0095484256744385
H 12.20687484741211 4.55745267868042 -4.6012187004089355
H 15.420675277709961 4.363471984863281 -3.207961320877075
