19
Generated by QM7 dataset
C 6.561866283416748 -1.2719557285308838 -2.3058438301086426
C 5.657405376434326 0.2243860810995102 -0.015628034248948097
C 6.233658313751221 3.086432933807373 -0.106221504509449
C 5.052069664001465 4.360807418823242 -2.425255537033081
C 5.186788082122803 4.33726167678833 2.299135208129883
C 9.090300559997559 3.4700663089752197 -0.07033560425043106
O 10.288689613342285 4.597382545471191 -1.7061392068862915
H 6.15453577041626 -3.2830779552459717 -2.035046100616455
H 8.602070808410645 -1.0768415927886963 -2.583803653717041
H 5.601072788238525 -0.6742165088653564 -4.035850524902344
H 6.529986381530762 -0.6066776514053345 1.6725965738296509
H 3.612476110458374 -0.06351369619369507 0.17993971705436707
H 5.887309551239014 3.679164409637451 -4.19118595123291
H 5.348453998565674 6.411066055297852 -2.3800723552703857
H 3.0112407207489014 4.0203166007995605 -2.505833625793457
H 6.00692892074585 3.4960501194000244 4.005350112915039
H 3.1296510696411133 4.133908271789551 2.416090488433838
H 5.631780624389648 6.360062122344971 2.344526529312134
H 10.084807395935059 2.645918846130371 1.5695120096206665
