14
Generated by QM7 dataset
O 4.45368766784668 -0.6854225397109985 0.7460072040557861
N 6.236814498901367 1.249335765838623 0.4514366686344147
C 8.46929931640625 0.2807377278804779 0.5303705334663391
O 10.624493598937988 1.6326667070388794 0.30307427048683167
C 10.314446449279785 4.303189754486084 -0.01058246660977602
C 12.90284252166748 5.433982849121094 -0.1889348179101944
C 13.802597045898438 7.22790002822876 1.3568989038467407
H 2.855225086212158 0.23037651181221008 0.6648056507110596
H 8.892748832702637 -1.7421762943267822 0.7854457497596741
H 9.264911651611328 5.086103439331055 1.5956469774246216
H 9.287853240966797 4.685746192932129 -1.7693694829940796
H 14.103970527648926 4.7177581787109375 -1.6938560009002686
H 12.677605628967285 7.994939804077148 2.891035318374634
H 15.705381393432617 7.9566731452941895 1.1190580129623413
