11
Generated by QM7 dataset
O 2.219388961791992 0.17829565703868866 0.7777923941612244
C 4.37284517288208 -0.05661619454622269 0.04705417901277542
O 5.903957843780518 1.7455589771270752 -0.9636469483375549
C 7.965573787689209 -0.03163401409983635 -1.3051015138626099
C 6.4170942306518555 -2.1453683376312256 -0.07980313152074814
C 5.77923583984375 -4.276658058166504 -1.6684013605117798
C 5.260071754455566 -6.054361343383789 -2.9801926612854004
H 8.436927795410156 -0.25694605708122253 -3.306964159011841
H 9.6510009765625 0.5486252903938293 -0.2564358413219452
H 7.092010021209717 -2.685244083404541 1.8016082048416138
H 4.786581993103027 -7.632169246673584 -4.1410136222839355
