17
Generated by QM7 dataset
C 1.8572605848312378 0.07128047198057175 -0.03839923441410065
C 4.737770080566406 0.03337256237864494 -0.016724076122045517
C 5.798095703125 -2.3365139961242676 1.2808185815811157
O 6.711494445800781 -1.6303801536560059 3.7554337978363037
C 6.879755973815918 0.9640060067176819 3.627537250518799
C 5.8410491943359375 2.0450239181518555 1.6124277114868164
C 5.728062152862549 4.7752814292907715 0.9948841333389282
H 1.1221572160720825 -1.5154658555984497 -1.1452873945236206
H 1.1481409072875977 1.819126009941101 -0.890363335609436
H 1.071606993675232 -0.06944743543863297 1.872283935546875
H 5.4417877197265625 0.14433728158473969 -1.9612901210784912
H 7.410655498504639 -3.092007637023926 0.2185090333223343
H 4.402003765106201 -3.8506572246551514 1.482452392578125
H 7.778698444366455 1.8428609371185303 5.229193687438965
H 5.508740425109863 5.060818672180176 -1.0436956882476807
H 7.465590000152588 5.739419460296631 1.5721009969711304
H 4.126311302185059 5.672220706939697 1.9485533237457275
