18
Generated by QM7 dataset
C 5.373965263366699 -1.6693651676177979 -2.047499418258667
C 4.68088960647583 -0.006462863180786371 0.20212510228157043
C 5.720938205718994 2.707637310028076 0.0
C 4.678829669952393 4.310049533843994 2.2001893520355225
C 5.361493110656738 7.101949691772461 2.0048861503601074
C 8.449702262878418 2.707637310028076 0.0
N 10.624795913696289 2.707637310028076 0.0
H 4.455804347991943 -3.5147204399108887 -1.8723595142364502
H 7.412545204162598 -1.9921303987503052 -2.1529650688171387
H 4.753114700317383 -0.810881495475769 -3.8235018253326416
H 5.3596601486206055 -0.9135125279426575 1.940427541732788
H 2.6118850708007812 0.06268221884965897 0.33251622319221497
H 5.037461757659912 3.529536008834839 -1.7777787446975708
H 5.363836288452148 3.577176094055176 4.014817714691162
H 2.611412525177002 4.158644676208496 2.2346577644348145
H 7.400866508483887 7.399638652801514 2.1744322776794434
H 4.445505142211914 8.162615776062012 3.5267014503479004
H 4.731647491455078 7.896711826324463 0.2016715705394745
