17
Generated by QM7 dataset
C 2.5460281372070312 -0.9576942920684814 -0.1973440945148468
C 5.41140079498291 -0.7651123404502869 -0.2537902295589447
C 6.292240142822266 1.9719481468200684 -0.03567802906036377
C 9.148504257202148 2.194709062576294 -0.042367659509181976
O 10.602213859558105 0.40022510290145874 -0.264788419008255
N 9.96745491027832 4.676864147186279 0.22975289821624756
N 12.576637268066406 5.214113235473633 0.14373256266117096
H 1.9576051235198975 -2.9337997436523438 -0.3599361479282379
H 1.7007724046707153 0.09543117135763168 -1.76421058177948
H 1.7880966663360596 -0.20647147297859192 1.574841022491455
H 6.1189141273498535 -1.5967241525650024 -2.0151095390319824
H 6.202005386352539 -1.8882899284362793 1.297807216644287
H 5.581154823303223 2.804466962814331 1.723127841949463
H 5.553225040435791 3.079629898071289 -1.6231613159179688
H 8.714868545532227 6.136772155761719 0.21352015435695648
H 13.375822067260742 3.927021026611328 -1.0761990547180176
H 13.325743675231934 4.704000949859619 1.8563346862792969
