17
Generated by QM7 dataset
C 5.29106330871582 -0.2742370665073395 -0.4587121307849884
O 3.72599196434021 1.8865513801574707 -0.13702404499053955
C 4.83150053024292 4.256097793579102 -0.065724678337574
C 2.848629951477051 6.262363433837891 0.3139968812465668
C 7.331230163574219 4.700353622436523 -0.30813875794410706
C 8.586518287658691 7.128425121307373 -0.23763306438922882
C 11.088138580322266 7.385805606842041 -0.5357562303543091
H 4.0744194984436035 -1.945718765258789 -0.4511910080909729
H 6.630803108215332 -0.4578617513179779 1.1067558526992798
H 6.273097038269043 -0.21272647380828857 -2.2782537937164307
H 1.8664069175720215 5.9436798095703125 2.1078383922576904
H 1.4513474702835083 6.160072326660156 -1.2100294828414917
H 3.5804262161254883 8.189600944519043 0.34357109665870667
H 8.610347747802734 3.117745876312256 -0.5870622992515564
H 7.475964546203613 8.822942733764648 0.07377491146326065
H 12.327402114868164 5.783071994781494 -0.8545719385147095
H 11.955843925476074 9.243897438049316 -0.46661117672920227
