19
Generated by QM7 dataset
C 1.6964638233184814 1.1221950054168701 -1.3732829093933105
C 4.440667629241943 0.9575620293617249 -0.5529149770736694
C 5.8849663734436035 3.3969337940216064 -1.0271984338760376
O 4.911436080932617 5.222295761108398 -2.0908308029174805
C 8.642964363098145 3.4305899143218994 -0.17731299996376038
C 10.309835433959961 2.326422929763794 -2.2501726150512695
C 9.475975036621094 6.105762004852295 0.5062576532363892
H 0.7205525636672974 -0.6596844792366028 -0.9867016077041626
H 1.5481959581375122 1.5132170915603638 -3.4003353118896484
H 0.708042562007904 2.633692502975464 -0.362619549036026
H 5.377707004547119 -0.5706973075866699 -1.5842896699905396
H 4.524816989898682 0.5410097241401672 1.4718132019042969
H 8.796751022338867 2.2634572982788086 1.528070330619812
H 10.139817237854004 3.4097273349761963 -4.006087303161621
H 9.7747220993042 0.37335318326950073 -2.6741514205932617
H 12.298205375671387 2.3296165466308594 -1.6787004470825195
H 9.41922664642334 7.36350679397583 -1.1377851963043213
H 11.408711433410645 6.106121063232422 1.2446303367614746
H 8.23631477355957 6.912467002868652 1.9538445472717285
