13
Generated by QM7 dataset
O 4.110418796539307 3.4276041984558105 3.0540053844451904
C 3.5941834449768066 2.351386308670044 1.0810556411743164
C 5.590887069702148 1.5851967334747314 -0.8094263672828674
O 4.970868110656738 0.49140438437461853 -2.747586250305176
C 8.246103286743164 2.2039875984191895 -0.14719076454639435
C 10.303845405578613 0.27038201689720154 -0.5763475894927979
C 10.188610076904297 2.5896430015563965 -2.2062742710113525
H 1.6566283702850342 1.8473774194717407 0.5104528069496155
H 8.471585273742676 3.3911514282226562 1.516335129737854
H 9.803709983825684 -1.5222121477127075 -1.43649423122406
H 11.804627418518066 0.14278770983219147 0.8125066757202148
H 11.612593650817871 4.034924507141113 -1.924856185913086
H 9.611109733581543 2.353691577911377 -4.159079551696777
