15
Generated by QM7 dataset
C 2.0828561782836914 3.417588710784912 -2.464599609375
N 2.946045160293579 3.7617645263671875 0.13955627381801605
N 5.488407135009766 4.618547439575195 0.1998952329158783
C 5.969191551208496 7.164329528808594 0.5162732005119324
C 4.223594665527344 8.982227325439453 0.7365396618843079
C 7.4018874168396 2.7986466884613037 0.14291998744010925
O 7.088381767272949 0.502610445022583 0.0126422680914402
H 0.11699294298887253 2.7747981548309326 -2.452826738357544
H 3.2103424072265625 1.9991791248321533 -3.464586019515991
H 2.1531729698181152 5.194592475891113 -3.5225062370300293
H 2.939639091491699 2.0208163261413574 0.9926164746284485
H 7.954764366149902 7.688067436218262 0.5979282259941101
H 2.2145888805389404 8.574840545654297 0.6890508532524109
H 4.778040409088135 10.9389066696167 0.9890448451042175
H 9.307581901550293 3.6357574462890625 0.24660925567150116
