15
Generated by QM7 dataset
C 1.8871183395385742 -0.04115823656320572 0.18770650029182434
N 4.6197943687438965 -0.06477981060743332 0.5766687989234924
C 5.7676520347595215 2.324174165725708 -0.27213945984840393
C 8.593870162963867 2.2542543411254883 -0.032427702099084854
C 9.832131385803223 0.05931850150227547 0.17510202527046204
C 8.235747337341309 -2.230027914047241 -0.003779452294111252
N 5.788665771484375 -2.3172199726104736 0.10722306370735168
H 1.0295417308807373 1.6741461753845215 0.9668594598770142
H 1.0086979866027832 -1.647066354751587 1.1553974151611328
H 1.416595458984375 -0.1660691350698471 -1.8244550228118896
H 5.052598476409912 3.8764328956604004 0.8986592888832092
H 5.282918453216553 2.7240023612976074 -2.24658203125
H 9.611222267150879 4.031900882720947 -0.030122235417366028
H 11.857351303100586 -0.1257045865058899 0.34124675393104553
H 9.279783248901367 -4.007258892059326 -0.3053797483444214
