13
Generated by QM7 dataset
N 2.045250654220581 -0.16896040737628937 -0.2673206627368927
C 4.547569274902344 0.168563574552536 -0.12715966999530792
C 6.043231010437012 2.288911819458008 -0.0775921568274498
C 8.568414688110352 1.4101136922836304 0.10081689059734344
C 8.422811508178711 -1.182155966758728 0.151858389377594
N 10.17264175415039 -3.000450372695923 0.2950996458530426
O 5.981361389160156 -1.9505375623703003 0.012037555687129498
H 0.8592395782470703 1.2637921571731567 0.1872529685497284
H 1.3717900514602661 -1.9122517108917236 0.15966296195983887
H 5.4024434089660645 4.224728584289551 -0.163593590259552
H 10.272740364074707 2.5271685123443604 0.18700729310512543
H 9.61868667602539 -4.786468505859375 -0.13027772307395935
H 11.994280815124512 -2.6157212257385254 -0.15028992295265198
