16
Generated by QM7 dataset
C 1.8264392614364624 0.020598014816641808 0.07396388053894043
C 4.705059051513672 -0.04748881608247757 -0.09926731139421463
C 5.616379261016846 0.31180480122566223 -2.800328493118286
C 5.836230278015137 -2.361609697341919 1.1616146564483643
O 6.206238746643066 -1.635198950767517 3.7467222213745117
N 6.603742599487305 1.0127798318862915 3.7852349281311035
C 5.787097454071045 1.8695627450942993 1.6557780504226685
H 1.1704775094985962 -0.17638704180717468 2.029263496398926
H 0.9798040986061096 -1.5083227157592773 -1.0356454849243164
H 1.0819249153137207 1.8177653551101685 -0.6378581523895264
H 7.682965278625488 0.41868773102760315 -2.8951926231384277
H 4.885130882263184 2.074749231338501 -3.604595899581909
H 5.000215530395508 -1.2515089511871338 -4.008997440338135
H 7.683437347412109 -2.882720470428467 0.3820648193359375
H 4.599026679992676 -4.01704740524292 1.087197184562683
H 5.795884609222412 3.8889808654785156 1.164751648902893
