15
Generated by QM7 dataset
C 1.9490257501602173 0.026947494596242905 0.19855351746082306
N 4.627258777618408 0.11678507179021835 -0.36210933327674866
O 5.858604431152344 2.091416597366333 0.922696590423584
C 8.278700828552246 2.3807713985443115 -0.2565681040287018
C 9.827256202697754 0.0033070207573473454 0.24779978394508362
N 8.469752311706543 -2.3367786407470703 -0.43047961592674255
C 6.0564775466918945 -2.049804925918579 -0.605827271938324
H 1.111574649810791 1.909719467163086 0.025832556188106537
H 1.6278856992721558 -0.6656560301780701 2.120234966278076
H 0.969996452331543 -1.2225772142410278 -1.1294137239456177
H 9.207898139953613 4.033242702484131 0.5704138278961182
H 8.03689193725586 2.7338857650756836 -2.2849056720733643
H 10.30749225616455 -0.11039780080318451 2.2603769302368164
H 11.599894523620605 0.0885147750377655 -0.8174010515213013
H 4.894617557525635 -3.714710235595703 -1.0734022855758667
