15
Generated by QM7 dataset
C 3.716618776321411 -0.8001667261123657 -2.9150915145874023
O 4.123117923736572 0.3973149061203003 -0.5473591685295105
C 5.958438873291016 2.4213061332702637 -0.5463387370109558
C 4.962042808532715 5.068150997161865 -1.3138320446014404
C 5.317368030548096 6.098788738250732 1.3892511129379272
C 6.526395797729492 3.5615291595458984 2.0919835567474365
O 7.590217113494873 2.8129897117614746 3.9829001426696777
H 2.259451150894165 -2.2440497875213623 -2.6823718547821045
H 5.4599289894104 -1.7038148641586304 -3.559507131576538
H 3.07774019241333 0.580013632774353 -4.314207077026367
H 7.700804233551025 1.8657643795013428 -1.5213050842285156
H 2.9977481365203857 5.099709510803223 -1.9641057252883911
H 6.128363132476807 6.012617111206055 -2.7395925521850586
H 6.60413932800293 7.707342624664307 1.5466841459274292
H 3.56697154045105 6.482875347137451 2.413841724395752
