16
Generated by QM7 dataset
C 1.6572142839431763 0.01780121959745884 -0.4738677144050598
C 4.447357177734375 0.04741322994232178 0.0902911126613617
C 5.063029766082764 0.0025700274854898453 2.869586944580078
C 6.196430683135986 -1.331860065460205 -1.698750376701355
C 6.133710861206055 1.5080204010009766 -1.7025299072265625
O 8.264660835266113 2.7807509899139404 -0.613877534866333
H 1.2754517793655396 0.037983495742082596 -2.508479118347168
H 0.7387317419052124 1.6737682819366455 0.36046525835990906
H 0.7800033688545227 -1.6815727949142456 0.31656691431999207
H 7.093937397003174 -0.17304222285747528 3.2280678749084473
H 4.133246898651123 -1.6039806604385376 3.785858392715454
H 4.400661945343018 1.739795207977295 3.7785451412200928
H 5.383073806762695 -2.2985873222351074 -3.313483715057373
H 7.835390567779541 -2.288666248321533 -0.9301987886428833
H 5.245029449462891 2.4265029430389404 -3.309364080429077
H 9.567286491394043 1.6109914779663086 -0.06039564684033394
