15
Generated by QM7 dataset
C 1.7811046838760376 0.08787226676940918 -0.020031096413731575
C 4.605489253997803 0.09584690630435944 -0.0032125343568623066
C 6.0526227951049805 2.2721500396728516 0.016157157719135284
S 9.21965217590332 1.6792484521865845 0.031671810895204544
C 8.71617317199707 -1.5031259059906006 0.012547781690955162
C 6.179404258728027 -2.137601613998413 -0.005272335838526487
C 5.255403995513916 -4.80636739730835 -0.024944385513663292
H 1.0206788778305054 2.0113677978515625 -0.0096942950040102
H 1.0545616149902344 -0.8935570120811462 1.6491073369979858
H 1.074838399887085 -0.8679701089859009 -1.7125643491744995
H 5.391917705535889 4.205887794494629 0.021901926025748253
H 10.314200401306152 -2.776442289352417 0.015174500644207
H 3.1922576427459717 -4.915347576141357 -0.013832795433700085
H 5.953600883483887 -5.815896511077881 1.6398288011550903
H 5.934798240661621 -5.7838850021362305 -1.716324806213379
