15
Generated by QM7 dataset
C 1.3636075258255005 0.02815691940486431 0.10720416158437729
C 4.133001327514648 0.069107286632061 0.6583238840103149
C 5.7105631828308105 1.814949631690979 -0.2689269185066223
N 8.241568565368652 1.8010601997375488 0.2708166539669037
C 9.897421836853027 3.612022638320923 -0.5572046637535095
N 12.320768356323242 3.135622501373291 0.16321565210819244
O 9.374005317687988 5.493622779846191 -1.7918004989624023
H 0.8564617037773132 -1.7519272565841675 -0.8147932291030884
H 0.7872599363327026 1.582551121711731 -1.1298483610153198
H 0.29305872321128845 0.17585791647434235 1.8701485395431519
H 4.831066131591797 -1.4240976572036743 1.882318377494812
H 5.053222179412842 3.3292062282562256 -1.498703956604004
H 8.917182922363281 0.492613822221756 1.4827169179916382
H 12.896832466125488 1.318594217300415 0.16484081745147705
H 13.57252311706543 4.37129545211792 -0.5916354656219482
