19
Generated by QM7 dataset
C 1.6618629693984985 0.09815237671136856 0.057220906019210815
C 4.516369819641113 -0.12500537931919098 0.05877048149704933
C 5.978715419769287 1.7350331544876099 1.733389139175415
O 7.583414077758789 -0.2775440812110901 2.6785356998443604
C 5.846321105957031 -2.1764543056488037 1.6917961835861206
C 4.3672895431518555 -3.3639204502105713 3.863091468811035
C 7.285914897918701 -4.143394470214844 0.15813228487968445
H 0.8095964789390564 -1.5279569625854492 -0.8939727544784546
H 1.0724574327468872 1.8034034967422485 -0.9560502171516418
H 0.8845996856689453 0.20615021884441376 1.9694914817810059
H 5.211826801300049 -0.08964860439300537 -1.897984266281128
H 4.917369842529297 2.619368314743042 3.2728734016418457
H 7.06154727935791 3.1717920303344727 0.7172266840934753
H 3.489379405975342 -1.9280498027801514 5.066450119018555
H 5.609292984008789 -4.49987268447876 5.067697525024414
H 2.870701789855957 -4.599480152130127 3.1460916996002197
H 8.483075141906738 -3.2573020458221436 -1.2787209749221802
H 5.974879264831543 -5.420698165893555 -0.8086516261100769
H 8.512441635131836 -5.283598899841309 1.3737741708755493
