19
Generated by QM7 dataset
C 1.6961047649383545 -0.2612546384334564 -0.1568094789981842
C 4.595360279083252 -0.4362243711948395 -0.06640497595071793
C 5.365782737731934 -1.654304027557373 2.4632012844085693
C 5.5300188064575195 -2.1312520503997803 -2.2342987060546875
C 5.8217549324035645 2.207200050354004 -0.21450281143188477
C 5.304707050323486 3.5910654067993164 -2.654592752456665
O 6.9704437255859375 4.195210933685303 -4.151463985443115
H 1.0262346267700195 0.45330750942230225 -1.979355812072754
H 0.9774041771888733 0.9959423542022705 1.3232618570327759
H 0.82951420545578 -2.121614456176758 0.12519435584545135
H 4.726639747619629 -0.5117945075035095 4.068089008331299
H 7.422995567321777 -1.847471833229065 2.605686664581299
H 4.543185234069824 -3.5438222885131836 2.669370412826538
H 4.943920612335205 -1.4018933773040771 -4.08069372177124
H 4.770708084106445 -4.05043888092041 -2.0597448348999023
H 7.596132278442383 -2.271110773086548 -2.234827995300293
H 7.8787031173706055 2.0553605556488037 -0.0021731851156800985
H 5.14096212387085 3.4158501625061035 1.3250759840011597
H 3.315694570541382 4.090198993682861 -3.0226736068725586
