16
Generated by QM7 dataset
C 3.2148587703704834 -0.7016553282737732 2.8738389015197754
N 5.793616771697998 0.18676163256168365 2.5279622077941895
C 5.8929219245910645 2.721243381500244 1.3942210674285889
C 5.51516580581665 4.721688747406006 3.371346950531006
C 4.058111190795898 6.771531105041504 3.084070920944214
C 8.506526947021484 3.1338839530944824 0.2092304825782776
O 9.92249870300293 1.4202992916107178 -0.4748881757259369
H 3.2515573501586914 -2.62080454826355 3.640047073364258
H 2.177285671234131 -0.7551156878471375 1.0859500169754028
H 2.182274580001831 0.4788754880428314 4.222120761871338
H 6.7520294189453125 -1.023022174835205 1.3588831424713135
H 4.532451629638672 2.9114632606506348 -0.15954957902431488
H 6.496727466583252 4.441744804382324 5.158782482147217
H 3.028512954711914 7.143429279327393 1.3498691320419312
H 3.860767126083374 8.13491153717041 4.609665870666504
H 8.98381519317627 5.118190765380859 -0.22837340831756592
