13
Generated by QM7 dataset
C 1.9124972820281982 -0.03397727757692337 -0.12239756435155869
C 4.73769474029541 -0.05720201134681702 0.06765219569206238
C 5.937519550323486 -2.5923640727996826 0.12921947240829468
O 4.729663372039795 -4.551348686218262 -0.13471858203411102
C 6.128438472747803 2.0564377307891846 0.21896256506443024
N 8.693855285644531 2.391845226287842 0.3734098970890045
H 1.151334524154663 1.8910489082336426 -0.11020883172750473
H 1.0690937042236328 -1.0480232238769531 1.472777009010315
H 1.2963331937789917 -0.9377955198287964 -1.8788602352142334
H 7.996659755706787 -2.632237434387207 0.42789068818092346
H 5.153566837310791 3.8718409538269043 0.2437746673822403
H 9.78003215789795 0.9649130702018738 -0.3160378038883209
H 9.30126953125 4.117977619171143 -0.23084893822669983
