13
Generated by QM7 dataset
C 1.9129886627197266 -0.06379715353250504 -0.5319768190383911
N 4.621344089508057 0.004988877102732658 -0.16091017425060272
C 6.0363898277282715 2.1749048233032227 -0.02445305697619915
C 8.554411888122559 2.322208881378174 -0.14987418055534363
C 9.819735527038574 4.7974853515625 0.0337127149105072
O 12.121251106262207 4.990445613861084 -0.12152829021215439
H 1.231534481048584 -2.0068514347076416 -0.35228273272514343
H 1.4215842485427856 0.6287874579429626 -2.417356491088867
H 0.945996880531311 1.092091679573059 0.8836548328399658
H 5.574106216430664 -1.5815874338150024 -0.6879358887672424
H 4.886642932891846 3.8653969764709473 0.2191515415906906
H 9.761701583862305 0.6886540055274963 -0.3813278377056122
H 8.585932731628418 6.453036785125732 0.3119370937347412
