13
Generated by QM7 dataset
N 1.7743394374847412 -0.3273005783557892 -0.12806673347949982
N 4.440043926239014 -0.19598349928855896 -0.09662169963121414
C 5.843165397644043 1.9546570777893066 0.07447410374879837
C 8.352495193481445 1.2444791793823242 0.15115919709205627
C 8.43309211730957 -1.4337730407714844 0.014947733841836452
C 5.980435371398926 -2.2778759002685547 -0.15896376967430115
O 5.047628402709961 -4.605526924133301 -0.35105443000793457
H 1.0250252485275269 1.1878818273544312 -1.0483067035675049
H 1.088897943496704 -0.23761416971683502 1.6689305305480957
H 4.974174976348877 3.801335334777832 0.13541777431964874
H 9.952677726745605 2.513808250427246 0.2918493151664734
H 10.09903621673584 -2.624281644821167 0.03320248797535896
H 3.2202255725860596 -4.39406681060791 -0.5408585071563721
