15
Generated by QM7 dataset
C 2.684488296508789 -0.8188183307647705 1.8770461082458496
C 4.370993137359619 -0.2726118862628937 0.07139385491609573
C 5.553432464599609 2.2762506008148193 -0.30392464995384216
C 8.362812995910645 2.0158841609954834 0.06190742924809456
N 9.869019508361816 1.8397051095962524 -1.8583377599716187
N 12.360282897949219 1.5782992839813232 -1.063878059387207
C 13.822798728942871 1.1477062702178955 -2.9670588970184326
H 1.8998361825942993 -2.708620071411133 2.0355184078216553
H 2.042604923248291 0.5875158309936523 3.2254035472869873
H 4.9426164627075195 -1.750982403755188 -1.2418524026870728
H 4.846826076507568 3.6690733432769775 1.0529175996780396
H 5.1529998779296875 2.9541332721710205 -2.217102289199829
H 9.059932708740234 1.9306576251983643 2.0284130573272705
H 15.865346908569336 0.8936892747879028 -2.6675186157226562
H 13.127984046936035 1.0089058876037598 -4.928632736206055
