13
Generated by QM7 dataset
C 2.0841033458709717 -0.15733860433101654 0.31991174817085266
C 4.580110549926758 -0.07564573734998703 -0.04030785709619522
C 6.213891983032227 2.249643325805664 0.04410620778799057
O 8.732538223266602 1.328212857246399 -0.5036687254905701
C 8.602846145629883 -1.2239189147949219 -0.8475610613822937
N 10.59155559539795 -2.493795871734619 -1.3599413633346558
N 6.186642169952393 -2.006284475326538 -0.563251793384552
H 1.0443949699401855 -1.9211522340774536 0.22022868692874908
H 1.015066385269165 1.546249508857727 0.7217242121696472
H 6.233016014099121 3.12611722946167 1.9159177541732788
H 5.691911697387695 3.628387451171875 -1.40450119972229
H 10.126022338867188 -4.354628086090088 -1.5501422882080078
H 5.603472709655762 -3.805417060852051 -0.7494276165962219
