19
Generated by QM7 dataset
C 1.74907386302948 -0.28398802876472473 -0.5341122150421143
C 4.594245433807373 -0.35885900259017944 -0.1468128263950348
C 5.688340187072754 2.294581174850464 0.18181055784225464
C 8.517600059509277 2.2596588134765625 0.4822770059108734
C 9.587355613708496 1.0371572971343994 2.796926975250244
C 10.187135696411133 2.6041371822357178 -1.8143072128295898
O 9.678364753723145 4.644908905029297 -0.10300897061824799
H 1.001800537109375 -2.2037041187286377 -0.730076789855957
H 1.2598426342010498 0.772368848323822 -2.2444465160369873
H 0.8045508861541748 0.6100224852561951 1.0747250318527222
H 5.485629081726074 -1.2947269678115845 -1.7653443813323975
H 5.013235569000244 -1.5128391981124878 1.5201712846755981
H 4.840949058532715 3.20367169380188 1.8425586223602295
H 5.160709857940674 3.4564225673675537 -1.4554671049118042
H 11.573627471923828 1.5468920469284058 3.089003086090088
H 9.486160278320312 -1.0224741697311401 2.637169599533081
H 8.535118103027344 1.6125788688659668 4.484149932861328
H 9.323681831359863 2.689836263656616 -3.667297124862671
H 12.072137832641602 1.8081655502319336 -1.7974507808685303
