14
Generated by QM7 dataset
C 1.4952268600463867 0.2126130908727646 0.08705968409776688
C 4.2984843254089355 -0.039079535752534866 0.3349539637565613
C 5.943755626678467 1.788588047027588 -0.2859344482421875
C 8.756102561950684 1.5346088409423828 -0.0573342926800251
C 9.705709457397461 3.4517927169799805 1.8263635635375977
O 11.0361328125 5.267006874084473 1.2521135807037354
H 0.7705358266830444 -1.231515645980835 -1.203320860862732
H 0.9370585083961487 2.0669634342193604 -0.6392187476158142
H 0.5996667742729187 -0.054197344928979874 1.9316213130950928
H 4.980165481567383 -1.8411223888397217 1.0549774169921875
H 5.248241901397705 3.57883882522583 -1.0282188653945923
H 9.645010948181152 1.8839247226715088 -1.8924473524093628
H 9.331694602966309 -0.343892365694046 0.5904827117919922
H 9.140189170837402 3.1305770874023438 3.807798147201538
