18
Generated by QM7 dataset
C 1.0803942680358887 -1.534514307975769 0.16504867374897003
C 3.9340696334838867 -1.1864267587661743 -0.14617031812667847
C 4.939479351043701 -2.939979314804077 -2.205650568008423
C 4.601256370544434 1.5667719841003418 -0.7480480670928955
O 3.8453660011291504 3.142331123352051 1.311602234840393
N 4.452723979949951 5.653531551361084 0.7154502868652344
C 3.760385036468506 7.0771565437316895 2.567514181137085
H 0.349183589220047 -0.3728429675102234 1.7132823467254639
H 0.6262174248695374 -3.5073506832122803 0.5971156358718872
H 0.0683135986328125 -1.009964108467102 -1.562916874885559
H 4.821296215057373 -1.700621247291565 1.6563260555267334
H 4.094450950622559 -2.5030179023742676 -4.044297218322754
H 4.516615390777588 -4.916594982147217 -1.7605444192886353
H 6.993403911590576 -2.760152816772461 -2.385798215866089
H 3.6418235301971436 2.1907784938812256 -2.476712942123413
H 6.647055149078369 1.7609790563583374 -1.017655372619629
H 4.072548866271973 9.130778312683105 2.4704012870788574
H 2.8486108779907227 6.336818695068359 4.289942741394043
