23
Generated by QM7 dataset
C 1.8108679056167603 -0.09656500816345215 -0.02226097323000431
C 4.682061195373535 -0.027136467397212982 0.03586700186133385
C 5.679288387298584 2.682900905609131 -0.015306781977415085
C 8.569530487060547 2.7345283031463623 0.0223365630954504
C 9.5795316696167 5.443469524383545 0.003647171426564455
C 12.467789649963379 5.48256778717041 0.011886377818882465
C 13.486559867858887 8.168341636657715 0.01670517958700657
H 1.140846610069275 -2.0533385276794434 0.02513335831463337
H 1.0821328163146973 0.789206326007843 -1.7443872690200806
H 1.010663390159607 0.8952955603599548 1.6076467037200928
H 5.419337749481201 -1.0799974203109741 -1.5883903503417969
H 5.349531173706055 -0.9894039034843445 1.7443684339523315
H 4.943466663360596 3.725198268890381 1.6183425188064575
H 4.990445613861084 3.6467745304107666 -1.7157012224197388
H 9.301421165466309 1.7097296714782715 -1.6237282752990723
H 9.25958251953125 1.7507556676864624 1.7107880115509033
H 8.864705085754395 6.461521625518799 1.6616172790527344
H 8.876043319702148 6.436955451965332 -1.6735981702804565
H 13.188549995422363 4.485982894897461 -1.6547008752822876
H 13.18114185333252 4.482978343963623 1.6801743507385254
H 12.851214408874512 9.206480979919434 -1.6563072204589844
H 15.554864883422852 8.149651527404785 0.013398158363997936
H 12.857091903686523 9.197164535522461 1.6979944705963135
