18
Generated by QM7 dataset
C 1.7295151948928833 -0.17400598526000977 -0.008843918330967426
C 4.59318733215332 0.08050233125686646 -0.0013417055597528815
C 5.611107349395752 2.808605432510376 -0.020786987617611885
C 4.837850093841553 4.244967460632324 -2.4063773155212402
C 4.837320804595947 4.2930989265441895 2.337062120437622
O 8.317194938659668 2.6631531715393066 -0.04866044968366623
H 1.2031697034835815 -2.175395965576172 0.013039110228419304
H 0.8941805958747864 0.6694355010986328 -1.7009425163269043
H 0.8822375535964966 0.7100645899772644 1.6563827991485596
H 5.361512184143066 -0.9421229362487793 -1.6348587274551392
H 5.345071315765381 -0.9154589176177979 1.6560425758361816
H 5.401933193206787 3.2050511837005615 -4.10631799697876
H 5.797717571258545 6.078644275665283 -2.501751661300659
H 2.7997615337371826 4.582925796508789 -2.4878244400024414
H 5.389026641845703 3.2818684577941895 4.057582378387451
H 2.8005552291870117 4.64016580581665 2.4046576023101807
H 5.806334495544434 6.1227126121521 2.400632381439209
H 8.85289478302002 1.7976208925247192 1.4816019535064697
