17
Generated by QM7 dataset
C 1.7949374914169312 0.009807678870856762 0.03365602344274521
C 4.667982578277588 0.017839014530181885 0.03329697623848915
C 5.720938205718994 2.707637310028076 0.0
C 8.449702262878418 2.707637310028076 0.0
C 10.698779106140137 2.707637310028076 0.0
C 13.355733871459961 2.707637310028076 0.0
C 14.68209457397461 4.8581647872924805 5.6691784266149625e-05
H 1.0840413570404053 -1.932471752166748 0.057636648416519165
H 1.0498563051223755 0.9448630809783936 -1.6551733016967773
H 1.0501774549484253 0.9861724972724915 1.699090600013733
H 5.3502302169799805 -1.033056616783142 -1.617756724357605
H 5.3505330085754395 -0.9919928312301636 1.7096730470657349
H 5.018621444702148 3.7465898990631104 1.649371862411499
H 5.018583297729492 3.7054505348205566 -1.674561858177185
H 14.327507019042969 0.9003599882125854 -3.779452163144015e-05
H 13.762818336486816 6.692597389221191 9.448630589758977e-05
H 16.7318058013916 4.822165489196777 5.6691784266149625e-05
