19
Generated by QM7 dataset
C 1.6811003684997559 0.07464418560266495 -0.4554240107536316
C 4.492086887359619 0.013435952365398407 0.026248296722769737
C 5.144722938537598 -0.0054802056401968 2.8039000034332275
C 6.2320709228515625 -1.4491931200027466 -1.7211058139801025
N 5.2363176345825195 -2.9775657653808594 -3.7999370098114014
C 6.157162189483643 1.4017421007156372 -1.848095417022705
N 8.325490951538086 2.905170440673828 -1.0152742862701416
H 1.2181930541992188 0.3028852939605713 -2.459365129470825
H 0.8175144195556641 1.6599920988082886 0.5583195686340332
H 0.799694299697876 -1.6756012439727783 0.21038320660591125
H 7.170981407165527 -0.24224399030208588 3.147433280944824
H 4.173686981201172 -1.5680947303771973 3.7535064220428467
H 4.546567916870117 1.76405930519104 3.6933753490448
H 7.9123969078063965 -2.2808616161346436 -0.873507022857666
H 3.921597480773926 -2.022517204284668 -4.829686641693115
H 4.364832878112793 -4.556658744812012 -3.126438617706299
H 5.225603103637695 2.218292713165283 -3.4907588958740234
H 9.425745964050293 1.9471170902252197 0.2395983785390854
H 7.739222049713135 4.5069403648376465 -0.12039445340633392
