17
Generated by QM7 dataset
C 0.07192298024892807 -1.8585267066955566 0.5356617569923401
C 2.8720247745513916 -2.569498300552368 0.4190656542778015
C 3.15419864654541 -5.309884548187256 -0.4563688635826111
N 4.156358242034912 -0.8023021221160889 -1.3130005598068237
N 6.794151306152344 -1.1854441165924072 -1.3260396718978882
C 8.330290794372559 0.20393924415111542 0.26102787256240845
O 7.606015205383301 1.7322930097579956 1.8412925004959106
H -0.17850352823734283 0.08379045873880386 1.21146559715271
H -0.9443906545639038 -3.1069743633270264 1.8375129699707031
H -0.8283047676086426 -2.0110087394714355 -1.3219767808914185
H 3.6644623279571533 -2.380903720855713 2.3259506225585938
H 2.4237060546875 -5.571366310119629 -2.3769164085388184
H 2.1111831665039062 -6.583975791931152 0.7985604405403137
H 5.133365631103516 -5.910250663757324 -0.4352417290210724
H 3.8529059886932373 0.9990226030349731 -0.6413352489471436
H 7.56419563293457 -2.2725090980529785 -2.7108500003814697
H 10.342452049255371 -0.21610908210277557 -0.060168880969285965
