13
Generated by QM7 dataset
C 2.072557210922241 0.0001511780865257606 -0.315584272146225
N 4.752170085906982 0.02959311194717884 0.16644707322120667
C 6.244032859802246 -2.0000104904174805 0.4402117133140564
N 8.611273765563965 -1.6102923154830933 0.8772108554840088
C 8.849531173706055 1.191585659980774 0.9259846806526184
C 6.198037147521973 2.135617256164551 0.4427061378955841
O 5.524425506591797 4.3377909660339355 0.33168473839759827
H 1.3366600275039673 1.916012167930603 -0.5385530591011047
H 1.1284688711166382 -0.9391939043998718 1.2646992206573486
H 1.7172508239746094 -1.1012946367263794 -2.029017925262451
H 5.371565341949463 -3.879229784011841 0.27701494097709656
H 9.504150390625 1.818540096282959 2.7816579341888428
H 10.118897438049316 1.8251919746398926 -0.5747979879379272
