17
Generated by QM7 dataset
C 2.3322243690490723 -0.2487257570028305 1.6845207214355469
C 5.143513202667236 -0.12285109609365463 1.1449661254882812
C 5.769863128662109 2.3175034523010254 -0.16803444921970367
N 6.622469425201416 2.310511350631714 -2.4591007232666016
N 7.060092449188232 4.673425197601318 -3.3019940853118896
C 6.5839948654174805 4.648197174072266 -6.027281284332275
C 9.222789764404297 4.5217742919921875 -5.021210193634033
H 1.8603219985961914 -2.0133142471313477 2.653761386871338
H 1.2357674837112427 -0.1552598923444748 -0.06846477836370468
H 1.7332756519317627 1.3292522430419922 2.8829283714294434
H 5.722222805023193 -1.7237703800201416 -0.030065542086958885
H 6.208808422088623 -0.18757422268390656 2.9163386821746826
H 5.456300735473633 4.078577041625977 0.9151943922042847
H 5.934458255767822 6.417150974273682 -6.820229530334473
H 5.762455463409424 2.9651315212249756 -6.85398006439209
H 10.24225902557373 2.751101016998291 -5.144401550292969
H 10.379150390625 6.204613208770752 -5.125296115875244
