13
Generated by QM7 dataset
N 1.940824270248413 -0.15034660696983337 -0.6820399761199951
C 4.438872337341309 0.11582131683826447 -0.055539052933454514
C 5.834491729736328 2.2099969387054443 0.08751321583986282
C 8.526482582092285 2.5159246921539307 0.7749577760696411
O 8.967071533203125 5.20462703704834 0.7982392311096191
N 6.747626304626465 6.489319324493408 -0.02537902258336544
C 5.035099506378174 4.792912483215332 -0.40528956055641174
H 1.0843626260757446 -1.6962748765945435 0.08150389045476913
H 0.8666284084320068 1.4366265535354614 -0.5334696769714355
H 5.323963165283203 -1.6992605924606323 0.3490702211856842
H 9.785039901733398 1.6676833629608154 -0.6268032789230347
H 8.94405460357666 1.7710702419281006 2.6559910774230957
H 3.1054625511169434 5.201622486114502 -1.048136591911316
