14
Generated by QM7 dataset
C 1.889726161956787 0.0 0.0
C 4.138802528381348 0.0 0.0
C 6.79575777053833 0.0 0.0
C 8.226638793945312 -2.0715932846069336 -0.12328573316335678
C 10.945067405700684 -1.3852258920669556 -0.1087915301322937
N 11.034771919250488 1.396564245223999 -0.32835879921913147
C 8.419315338134766 2.295469284057617 0.11013323813676834
H -0.12304006516933441 -0.0049510826356709 0.0022109795827418566
H 7.538797855377197 -3.9912338256835938 -0.20095348358154297
H 11.840362548828125 -1.9853651523590088 1.6547008752822876
H 11.946319580078125 -2.2600934505462646 -1.6923819780349731
H 11.492256164550781 1.8214881420135498 -2.1522469520568848
H 7.895880699157715 3.680959701538086 -1.3358851671218872
H 8.299657821655273 3.197322130203247 1.968943476676941
