13
Generated by QM7 dataset
O 4.919580936431885 4.3408708572387695 4.370690822601318
C 3.9854512214660645 3.2724764347076416 2.548919200897217
N 5.316649913787842 2.339329719543457 0.5320146083831787
C 8.047739028930664 2.564131498336792 0.3827829360961914
C 8.946568489074707 5.206516742706299 -0.35872671008110046
C 8.288679122924805 5.7676897048950195 -2.9941766262054443
N 7.764374256134033 6.169615745544434 -5.085139751434326
H 1.933756709098816 2.9704983234405518 2.343147039413452
H 4.348524570465088 1.603413701057434 -0.9490771293640137
H 8.704267501831055 1.1408843994140625 -0.9704121351242065
H 8.825323104858398 2.0803050994873047 2.240931749343872
H 11.003931999206543 5.30294942855835 -0.14101135730743408
H 8.131019592285156 6.64064884185791 0.8913460373878479
