16
Generated by QM7 dataset
C 2.0529229640960693 -0.07317019253969193 0.11185289174318314
N 4.806234836578369 -0.03836144134402275 -0.0014172946102917194
C 5.841218948364258 1.935457468032837 1.7071218490600586
C 7.893783092498779 0.012944623827934265 2.4625210762023926
C 5.89955472946167 -1.9912421703338623 1.7140194177627563
C 6.8277506828308105 -4.133643627166748 0.29564765095710754
C 7.594601631164551 -5.928203105926514 -0.8640772700309753
H 1.3257941007614136 -1.704816460609436 -0.9334113001823425
H 1.2902294397354126 1.6238983869552612 -0.7956503033638
H 1.2951993942260742 -0.1586047112941742 2.0385799407958984
H 4.618301868438721 2.504718542098999 3.2838149070739746
H 6.529948711395264 3.6335086822509766 0.750504732131958
H 9.585844039916992 0.08303456753492355 1.2659085988998413
H 8.464971542358398 0.03843703120946884 4.44713020324707
H 4.694060802459717 -2.53606915473938 3.3155810832977295
H 8.274127960205078 -7.515951156616211 -1.9023494720458984
