18
Generated by QM7 dataset
C 5.081303596496582 -2.0065300464630127 1.7406644821166992
C 6.001335620880127 -0.539875864982605 -0.5516677498817444
C 6.054928302764893 2.2491519451141357 -0.04057241976261139
C 8.15687084197998 3.6689600944519043 -0.13785551488399506
C 8.281838417053223 6.3875956535339355 0.3399995267391205
C 8.463346481323242 7.3106513023376465 3.0267364978790283
N 10.651857376098633 7.363922595977783 1.3554627895355225
H 5.053014278411865 -4.034489631652832 1.32819402217865
H 3.162569999694824 -1.4392154216766357 2.2752301692962646
H 6.320094585418701 -1.7032479047775269 3.3723485469818115
H 4.736806392669678 -0.8986214399337769 -2.1506216526031494
H 7.875660419464111 -1.2321959733963013 -1.0946427583694458
H 4.26080322265625 3.140894889831543 0.42284512519836426
H 9.94060230255127 2.758263111114502 -0.6141043305397034
H 7.333441257476807 7.57402229309082 -1.036458134651184
H 8.530734062194824 5.93980598449707 4.544829368591309
H 7.6195268630981445 9.11118221282959 3.5006420612335205
H 10.979781150817871 9.148731231689453 0.6993687152862549
