16
Generated by QM7 dataset
C 1.8437680006027222 0.03856930881738663 0.3886032700538635
C 4.663258075714111 -0.0852455422282219 -0.15971964597702026
C 5.274414539337158 -0.04374716058373451 -2.9697422981262207
N 6.115418434143066 1.853178858757019 1.2506396770477295
C 7.794307708740234 0.007558904588222504 2.495591163635254
C 6.129232406616211 -2.0809664726257324 1.3724892139434814
O 6.024409294128418 -4.358936786651611 1.5975555181503296
H 1.4508750438690186 0.029630905017256737 2.422288656234741
H 0.8658536076545715 -1.5884093046188354 -0.43817079067230225
H 1.0014981031417847 1.7532689571380615 -0.41029733419418335
H 7.316150188446045 -0.09151943773031235 -3.3173954486846924
H 4.52186918258667 1.6605401039123535 -3.873239278793335
H 4.445448398590088 -1.6839916706085205 -3.9229013919830322
H 5.060327529907227 2.8779962062835693 2.5002589225769043
H 9.731314659118652 0.0019464179640635848 1.7792338132858276
H 7.789092063903809 0.08490539342164993 4.557773590087891
