14
Generated by QM7 dataset
C 3.170034408569336 -1.3435574769973755 -3.022749185562134
N 5.63393497467041 -0.3847104609012604 -2.3156137466430664
C 6.003055095672607 1.7896273136138916 -0.9438614845275879
C 8.198784828186035 2.991096258163452 -0.5847190618515015
C 8.258746147155762 5.315043926239014 0.9540849328041077
O 10.642446517944336 6.008592128753662 1.532643437385559
O 6.402618885040283 6.492928981781006 1.6384114027023315
H 3.3642795085906982 -3.233302593231201 -3.8385818004608154
H 2.2880992889404297 -0.11151273548603058 -4.429914951324463
H 1.9286733865737915 -1.4802414178848267 -1.3734718561172485
H 7.084640026092529 -0.9193139672279358 -3.4564414024353027
H 4.272519588470459 2.515282154083252 -0.08645497262477875
H 9.928261756896973 2.286663055419922 -1.4069955348968506
H 11.953557014465332 4.843179225921631 0.9773474335670471
