16
Generated by QM7 dataset
O 2.1517555713653564 0.1274431347846985 0.9541227221488953
C 4.3563666343688965 0.03573472052812576 0.2090415060520172
C 5.723507881164551 -2.4613871574401855 -0.036887455731630325
C 7.556787967681885 -2.4090795516967773 -2.2500967979431152
C 9.209278106689453 -0.04756440594792366 -2.1991498470306396
N 7.624912738800049 2.209429979324341 -2.307525634765625
C 5.947950839996338 2.40966534614563 -0.10310345888137817
H 4.338697910308838 -3.9751334190368652 -0.30415141582489014
H 6.734095573425293 -2.804410219192505 1.736790657043457
H 8.74882698059082 -4.10193395614624 -2.2056126594543457
H 6.493080139160156 -2.4671318531036377 -4.030256748199463
H 10.409442901611328 -0.02084367908537388 -0.5099992752075195
H 10.466154098510742 -0.06466642767190933 -3.843721866607666
H 8.737469673156738 3.78170108795166 -2.3924310207366943
H 7.033863067626953 2.712834119796753 1.6320431232452393
H 4.677469253540039 4.018313884735107 -0.3795703947544098
