16
Generated by QM7 dataset
C 2.2955260276794434 -0.07099700719118118 -1.7350331544876099
C 3.8135428428649902 -0.9838858842849731 0.48800286650657654
C 3.710439443588257 -3.403094530105591 1.2381107807159424
N 5.344731330871582 0.6726858019828796 1.7985467910766602
C 5.710978984832764 3.220754623413086 1.3107329607009888
C 7.538042068481445 4.415458679199219 3.1411027908325195
O 4.750034332275391 4.448963165283203 -0.4021526277065277
H 3.5355074405670166 0.6504248380661011 -3.2255735397338867
H 0.9734356999397278 1.4137229919433594 -1.1622382402420044
H 1.1687389612197876 -1.594702124595642 -2.5703866481781006
H 2.5286803245544434 -4.765398025512695 0.25749409198760986
H 4.784200668334961 -4.111628532409668 2.833984375
H 6.317751407623291 -0.056124866008758545 3.277919054031372
H 7.059941291809082 3.8920421600341797 5.082475185394287
H 7.433124542236328 6.473389148712158 2.978907585144043
H 9.459383010864258 3.7969322204589844 2.700739860534668
