12
Generated by QM7 dataset
C 2.7982876300811768 -0.947697639465332 1.8976062536239624
C 4.330590724945068 -0.05778782442212105 0.08159837126731873
C 5.773189067840576 2.4253690242767334 0.0
C 4.981166839599609 4.195626735687256 2.01499605178833
C 4.351170063018799 5.658388137817383 3.632904052734375
C 8.456259727478027 1.928087592124939 0.0
N 10.594938278198242 1.5317175388336182 0.0
H 1.884982943534851 -2.7751762866973877 1.6891127824783325
H 2.418735980987549 0.08110704272985458 3.631808042526245
H 4.58991813659668 -1.2447059154510498 -1.5839495658874512
H 5.279346942901611 3.319927453994751 -1.8072962760925293
H 3.7987842559814453 6.955514907836914 5.073480129241943
