18
Generated by QM7 dataset
C 1.9116469621658325 0.25343117117881775 0.22905370593070984
C 4.730589389801025 -0.1535024493932724 -0.06519555300474167
O 6.147808074951172 1.8160645961761475 1.2142813205718994
C 7.686404228210449 -0.0581846684217453 2.478602647781372
C 5.944662570953369 -2.204667806625366 1.6095175743103027
C 7.146944046020508 -4.381197929382324 0.18243415653705597
N 8.480524063110352 -6.0643391609191895 1.9157098531723022
H 0.8626222014427185 -1.3600736856460571 -0.5290666222572327
H 1.3082952499389648 1.9437533617019653 -0.799505352973938
H 1.3788764476776123 0.4901382625102997 2.2146079540252686
H 5.285563945770264 -0.23572443425655365 -2.0619935989379883
H 9.611260414123535 -0.0708647295832634 1.7213892936706543
H 7.744494438171387 0.2514469623565674 4.52202033996582
H 4.679906845092773 -2.858928918838501 3.1210150718688965
H 8.459794044494629 -3.7057907581329346 -1.268440842628479
H 5.672410011291504 -5.470511436462402 -0.7795876264572144
H 10.041910171508789 -5.182876110076904 2.621711492538452
H 9.141474723815918 -7.590255260467529 0.9391183257102966
