19
Generated by QM7 dataset
C 1.8354343175888062 0.051835186779499054 -0.274728387594223
C 4.690999507904053 -0.15208515524864197 -0.04901949688792229
C 5.932455062866211 2.447497606277466 0.037586651742458344
C 8.777400016784668 2.1815943717956543 0.2623506784439087
C 10.268242835998535 1.8019483089447021 -2.1468422412872314
N 9.756750106811523 2.242481231689453 2.5207624435424805
N 12.293027877807617 1.986215591430664 2.648545742034912
H 0.9836024641990662 -1.832146167755127 -0.31324100494384766
H 1.299073338508606 1.0350029468536377 -2.013503313064575
H 1.0367794036865234 1.0847216844558716 1.3294034004211426
H 5.429561138153076 -1.2425894737243652 -1.6490883827209473
H 5.169157028198242 -1.217909574508667 1.6634314060211182
H 5.2287397384643555 3.526228904724121 1.6597843170166016
H 5.493037223815918 3.5328996181488037 -1.6693084239959717
H 9.000123023986816 1.6840860843658447 -3.7735562324523926
H 11.354098320007324 0.04746992141008377 -2.037276029586792
H 11.548815727233887 3.39937162399292 -2.4269564151763916
H 12.80378246307373 1.6877144575119019 4.490008354187012
H 13.166024208068848 3.6425037384033203 2.1668167114257812
