16
Generated by QM7 dataset
C 5.403350830078125 -2.1047768592834473 -0.9726420640945435
N 4.422828197479248 0.1661258190870285 0.2377653419971466
C 6.309871196746826 2.2055938243865967 0.3211778402328491
C 6.531611442565918 3.976871967315674 -1.8840380907058716
C 5.420925140380859 4.9100565910339355 0.5619289875030518
C 6.867491722106934 6.629556179046631 2.0768468379974365
C 8.072531700134277 8.07436466217041 3.3461191654205322
H 3.9301767349243164 -3.554990530014038 -1.0216048955917358
H 7.0237531661987305 -2.868849992752075 0.062190886586904526
H 5.972706317901611 -1.7227309942245483 -2.924502372741699
H 3.844817876815796 -0.2732921838760376 2.024501323699951
H 8.056922912597656 1.7219562530517578 1.2959363460540771
H 5.256292343139648 3.725179433822632 -3.466834783554077
H 8.407297134399414 4.599536895751953 -2.420304536819458
H 3.392247438430786 5.223372936248779 0.5776326060295105
H 9.138885498046875 9.35854721069336 4.470166206359863
