15
Generated by QM7 dataset
C 1.8734556436538696 0.02479320764541626 -0.008012439124286175
N 4.602787017822266 -0.02815691940486431 0.0015117808943614364
C 6.110599517822266 2.0848593711853027 -0.0023621576838195324
C 8.591242790222168 1.2997347116470337 0.014191843569278717
C 8.577051162719727 -1.375512719154358 0.029290754348039627
C 6.094007968902588 -2.154231071472168 0.022072000429034233
N 5.138240814208984 -4.5066375732421875 0.03822916001081467
H 1.2151316404342651 1.982832908630371 0.0076911854557693005
H 1.1920770406723022 -0.9512692093849182 1.6802310943603516
H 1.2071192264556885 -0.9198052883148193 -1.7200287580490112
H 5.306143283843994 3.9643619060516357 -0.013946179300546646
H 10.232829093933105 2.518778085708618 0.017895705997943878
H 10.211721420288086 -2.600773334503174 0.046770721673965454
H 3.2698497772216797 -4.908771514892578 -0.09246429800987244
H 6.287250995635986 -6.043325424194336 -0.042386557906866074
