14
Generated by QM7 dataset
C 1.889102578163147 -0.10181844234466553 0.005895945709198713
C 4.762109756469727 0.0 0.0
C 5.672995567321777 2.5722384452819824 0.0
C 6.423746109008789 4.692322254180908 0.0
C 7.3106513023376465 7.196870803833008 0.0
C 5.725435733795166 9.164755821228027 0.0
H 1.2426650524139404 -2.064960479736328 0.0050644660368561745
H 1.1061700582504272 0.8352400660514832 -1.6638282537460327
H 1.1132187843322754 0.8314794898033142 1.680987000465393
H 5.471777439117432 -1.0067894458770752 -1.6645463705062866
H 5.478731632232666 -1.009340524673462 1.6600110530853271
H 9.338573455810547 7.510074138641357 -0.0
H 3.68963360786438 8.909529685974121 1.8897260815720074e-05
H 6.443021297454834 11.084831237792969 0.0
