15
Generated by QM7 dataset
O 1.745124340057373 -0.185589998960495 0.21735629439353943
C 4.436680316925049 -0.005026671569794416 0.22640809416770935
C 5.2900238037109375 2.5072319507598877 -1.0111546516418457
C 7.158754825592041 2.2584304809570312 -3.1413862705230713
C 7.944748878479004 0.01653510332107544 -4.017482280731201
C 7.02127742767334 -2.320772647857666 -2.9733517169952393
C 5.404862403869629 -2.354504346847534 -1.023948073387146
H 1.0979119539260864 1.3168367147445679 1.0489492416381836
H 5.036951541900635 -0.026380576193332672 2.2096378803253174
H 6.160488128662109 3.6891422271728516 0.453779935836792
H 3.6471335887908936 3.56322979927063 -1.7061392068862915
H 7.871578693389893 3.987567901611328 -3.9859237670898438
H 9.287569046020508 -0.09401387721300125 -5.56650972366333
H 7.664917945861816 -4.0725297927856445 -3.8276779651641846
H 4.733121395111084 -4.148402214050293 -0.2891469895839691
