17
Generated by QM7 dataset
C 3.997337579727173 -1.220592975616455 1.8909355401992798
C 4.611536502838135 0.43558186292648315 -0.3745437264442444
N 5.248279571533203 2.9845199584960938 0.41105324029922485
C 7.522111415863037 3.4354844093322754 1.8788790702819824
C 7.894746780395508 6.288914203643799 1.4862507581710815
N 6.3630290031433105 7.000849723815918 -0.7723121643066406
C 4.960795879364014 5.021039962768555 -1.142207145690918
H 3.409972906112671 -3.101853132247925 1.264037847518921
H 2.463012456893921 -0.40277624130249023 3.012620210647583
H 5.639207363128662 -1.4471900463104248 3.12846040725708
H 2.955153703689575 0.4774015247821808 -1.6189472675323486
H 6.171770095825195 -0.38920798897743225 -1.4590953588485718
H 9.12862491607666 2.3849854469299316 1.1019370555877686
H 7.2887115478515625 2.960822820663452 3.8771889209747314
H 9.888313293457031 6.74879789352417 1.182515025138855
H 7.212820053100586 7.360728740692139 3.1225078105926514
H 3.5694282054901123 4.848130226135254 -2.6815025806427
