16
Generated by QM7 dataset
C 2.3009872436523438 -1.7419873476028442 1.99985933303833
C 3.7553582191467285 -2.157727003097534 -0.45406338572502136
C 5.564733028411865 -4.382993221282959 -0.1753854751586914
O 2.0821948051452637 -2.754880666732788 -2.4902055263519287
C 0.6984427571296692 -0.6294111013412476 -3.4286246299743652
C -0.6825879812240601 -1.3076149225234985 -5.748924732208252
N -1.7925753593444824 -1.7776464223861694 -7.582431793212891
H 1.1286578178405762 -0.04181963950395584 1.8907465934753418
H 3.587059259414673 -1.518394947052002 3.6044259071350098
H 1.0255732536315918 -3.32710862159729 2.3818864822387695
H 4.860300064086914 -0.4690867066383362 -0.9256067872047424
H 4.534398078918457 -6.132199287414551 0.232757568359375
H 6.938545227050781 -4.053764820098877 1.3347702026367188
H 6.594501495361328 -4.699087619781494 -1.9432998895645142
H 2.0049805641174316 0.9231312274932861 -3.840736150741577
H -0.650783896446228 0.0031180481892079115 -1.9945114850997925
