16
Generated by QM7 dataset
C 1.889726161956787 0.0 0.0
C 4.618490695953369 0.0 0.0
C 6.86756706237793 0.0 0.0
C 9.60228443145752 0.02014448121190071 -0.00032125343568623066
C 10.890888214111328 1.9268780946731567 1.7930477857589722
N 12.80516242980957 -0.0329001322388649 2.406358480453491
C 10.924638748168945 -1.9799038171768188 1.6652644872665405
H 1.1451174020767212 1.9291458129882812 0.022242076694965363
H 1.1452118158340454 -0.9837536215782166 1.6596708297729492
H 1.1450228691101074 -0.9453921914100647 -1.681723952293396
H 10.39474105834961 0.08949743211269379 -1.9189790487289429
H 9.771187782287598 2.5079312324523926 3.4394149780273438
H 11.657304763793945 3.623171806335449 0.8919318318367004
H 14.340205192565918 0.022298768162727356 1.2400950193405151
H 11.719193458557129 -3.5983786582946777 0.6535428762435913
H 9.815313339233398 -2.686302423477173 3.267317533493042
