15
Generated by QM7 dataset
C 3.9018309116363525 -0.9560880661010742 -2.58833909034729
O 4.334238052368164 0.0716395154595375 -0.14821122586727142
C 5.8176350593566895 2.364973306655884 -0.0792173221707344
C 4.512930393218994 4.847374439239502 -0.8911570310592651
N 5.780615329742432 6.16139554977417 1.2319124937057495
C 6.043646335601807 3.6834542751312256 2.5151877403259277
H 2.794621467590332 -2.6881353855133057 -2.386686325073242
H 5.701265811920166 -1.4127215147018433 -3.4972784519195557
H 2.842242479324341 0.38423800468444824 -3.7512385845184326
H 7.669018745422363 2.0839710235595703 -0.9765915870666504
H 2.4470629692077637 4.828344821929932 -0.7355003356933594
H 5.02844762802124 5.550654888153076 -2.765500783920288
H 7.474358081817627 6.943326473236084 0.743512749671936
H 7.842647075653076 3.4136202335357666 3.497032642364502
H 4.500155925750732 3.2672042846679688 3.832723617553711
