14
Generated by QM7 dataset
C 1.889726161956787 0.0 0.0
C 4.618490695953369 0.0 0.0
C 6.86756706237793 0.0 0.0
C 9.596331596374512 0.0 0.0
C 10.646187782287598 2.6857542991638184 0.0019842125475406647
C 13.416299819946289 2.6528921127319336 0.001965315081179142
N 15.612142562866211 2.6184990406036377 0.0019464179640635848
H 1.1451929807662964 1.9292025566101074 0.022053103893995285
H 1.1450228691101074 -0.98362135887146 1.6596708297729492
H 1.1450417041778564 -0.9454110860824585 -1.681723952293396
H 10.298345565795898 -1.026782751083374 -1.6591984033584595
H 10.298345565795898 -1.029239296913147 1.6576677560806274
H 9.964884757995605 3.7181873321533203 1.6656235456466675
H 9.964884757995605 3.720643997192383 -1.66012442111969
