15
Generated by QM7 dataset
C 2.751063346862793 -0.24065662920475006 2.528245687484741
C 5.1064934730529785 0.8585403561592102 1.3005284070968628
O 4.516672134399414 1.9342858791351318 -1.1051874160766602
C 4.544281005859375 0.42617103457450867 -3.195356845855713
C 5.049159049987793 -2.0423026084899902 -3.3942315578460693
C 6.029133319854736 3.0448780059814453 2.8981029987335205
O 7.70932674407959 2.853240728378296 4.492313861846924
H 3.1657447814941406 -0.959886372089386 4.423641204833984
H 1.9664112329483032 -1.7848652601242065 1.39826500415802
H 1.2643591165542603 1.1921526193618774 2.698774576187134
H 6.653158664703369 -0.5128905773162842 1.1844236850738525
H 4.069034099578857 1.5540729761123657 -4.842820167541504
H 5.527316570281982 -3.234682083129883 -1.80228853225708
H 4.9910502433776855 -2.947575807571411 -5.235505104064941
H 4.985589027404785 4.836470603942871 2.6729230880737305
