16
Generated by QM7 dataset
C 1.866387963294983 -0.7907559275627136 -0.22236406803131104
C 4.664675712585449 -1.2475026845932007 -0.00489439070224762
O 5.556380748748779 -3.368304491043091 0.283288836479187
N 6.130441665649414 0.8906468152999878 -0.11100251227617264
C 8.880465507507324 0.8009604215621948 -0.025756966322660446
C 9.916810035705566 0.15561895072460175 2.600773334503174
O 9.75943374633789 -2.474086046218872 3.145770311355591
H 1.4317132234573364 1.2103506326675415 -0.49637436866760254
H 0.9433890581130981 -1.435511589050293 1.509173035621643
H 1.1363111734390259 -1.8480387926101685 -1.8402341604232788
H 5.2858476638793945 2.6029465198516846 -0.2319260835647583
H 9.541189193725586 2.67464280128479 -0.5996289849281311
H 9.515243530273438 -0.595792829990387 -1.4157828092575073
H 8.910285949707031 1.1939667463302612 4.080107688903809
H 11.918672561645508 0.6661473512649536 2.698491096496582
H 8.239508628845215 -3.1377201080322266 2.310606002807617
