17
Generated by QM7 dataset
C 1.8777642250061035 0.041706256568431854 0.0531390979886055
C 4.705512523651123 -0.00797464419156313 -0.07175289839506149
C 6.064754962921143 2.0784153938293457 -0.5617777705192566
O 8.647651672363281 2.2195966243743896 -0.6399935483932495
C 9.921761512756348 0.060924772173166275 0.38091209530830383
C 8.746597290039062 -2.4096086025238037 -0.4984719455242157
C 5.981587886810303 -2.514167308807373 0.317247211933136
H 1.070265293121338 -1.6545307636260986 -0.8170419931411743
H 1.0954742431640625 1.6765083074569702 -0.9495306611061096
H 1.254078984260559 0.12627150118350983 2.025484085083008
H 5.242818355560303 3.9098434448242188 -0.961587131023407
H 11.895466804504395 0.16045664250850677 -0.23151035606861115
H 9.909553527832031 0.19702284038066864 2.4492740631103516
H 9.78409481048584 -4.033015727996826 0.2580420970916748
H 8.844693183898926 -2.51188063621521 -2.5685157775878906
H 5.852009296417236 -3.034937858581543 2.318505048751831
H 5.024120330810547 -3.992500066757202 -0.7730680704116821
