13
Generated by QM7 dataset
C 1.8463568687438965 0.04542901739478111 -0.011451740749180317
C 4.676013946533203 -0.07696854323148727 0.0025322330184280872
O 5.862365245819092 -2.0636754035949707 0.01024231594055891
C 6.018777847290039 2.3009872436523438 0.0
C 7.14331579208374 4.248746871948242 0.0
C 8.471793174743652 6.549734115600586 0.0
C 7.275918006896973 8.775453567504883 -7.55890432628803e-05
H 1.176241159439087 2.001030921936035 0.023999521508812904
H 1.116676926612854 -0.9326932430267334 1.6568740606307983
H 1.135819911956787 -0.8675543665885925 -1.7243939638137817
H 10.523998260498047 6.487032890319824 9.448630589758977e-05
H 5.228758811950684 8.90954875946045 -0.00013228082389105111
H 8.338889122009277 10.529516220092773 -3.779452163144015e-05
