18
Generated by QM7 dataset
N 4.160610198974609 -1.6849175691604614 2.463409185409546
C 4.088082313537598 -0.6106272339820862 -0.08394163846969604
C 5.833168983459473 1.6881868839263916 -0.34213492274284363
C 8.653395652770996 1.144455909729004 0.10778997838497162
O 9.049445152282715 0.3152063190937042 2.636054515838623
C 9.745280265808105 -0.7162061929702759 -1.7533257007598877
C 10.836161613464355 -2.9359540939331055 -1.201242208480835
H 3.0022268295288086 -3.2284460067749023 2.5189859867095947
H 3.3877499103546143 -0.4215034246444702 3.704127788543701
H 2.1443288326263428 -0.04166845977306366 -0.5136275887489319
H 4.609079837799072 -2.0704028606414795 -1.4541820287704468
H 5.213659763336182 3.1335439682006836 1.0127798318862915
H 5.583554744720459 2.495666742324829 -2.236018419265747
H 9.699113845825195 2.92059063911438 -0.09896495938301086
H 7.683362007141113 -0.8951443433761597 2.975147008895874
H 9.642837524414062 -0.15486305952072144 -3.727069139480591
H 11.023320198059082 -3.5869648456573486 0.7359916567802429
H 11.584568977355957 -4.141164779663086 -2.6794049739837646
