16
Generated by QM7 dataset
C 1.9728552103042603 -0.05886496976017952 -0.03660399466753006
C 4.790040016174316 -0.0742284432053566 -0.09739648550748825
C 6.164060115814209 -1.2042279243469238 -2.3193743228912354
C 6.199246406555176 1.6237472295761108 -1.9138768911361694
C 8.552484512329102 2.9484262466430664 -1.049459457397461
C 9.955852508544922 3.536735773086548 -3.36800217628479
N 11.081315994262695 4.0222063064575195 -5.189282417297363
H 1.2984875440597534 1.4483050107955933 1.208668828010559
H 1.2676849365234375 -1.8614557981491089 0.6918098330497742
H 1.154490351676941 0.24186605215072632 -1.913139820098877
H 5.579699993133545 -0.39676690101623535 1.7665727138519287
H 5.0678486824035645 -1.9264246225357056 -3.894801139831543
H 7.867591381072998 -2.2815229892730713 -1.9454541206359863
H 5.0689826011657715 2.7857775688171387 -3.1756091117858887
H 9.685507774353027 1.7622073888778687 0.21198947727680206
H 8.05405044555664 4.68013334274292 -0.03409066051244736
