11
Generated by QM7 dataset
O 2.290933847427368 -0.5648580193519592 1.3674436807632446
C 4.099647521972656 -0.06852146983146667 -0.00039684248622506857
C 5.564222812652588 2.3644442558288574 0.1559968888759613
C 8.292779922485352 1.8910866975784302 0.06538452208042145
C 10.530592918395996 1.5165808200836182 -0.0037227605935186148
C 13.38336181640625 1.041125774383545 -0.08649276196956635
C 15.61966323852539 0.6698890328407288 -0.14622700214385986
H 4.63470458984375 -1.3563131093978882 -1.5521076917648315
H 5.053997039794922 3.341451644897461 1.9065446853637695
H 4.987497329711914 3.5475640296936035 -1.4400279521942139
H 17.604612350463867 0.3415113091468811 -0.19447171688079834
