14
Generated by QM7 dataset
O 1.8985888957977295 0.0531013049185276 -0.06597033888101578
C 4.571247577667236 0.03135055676102638 -0.010601364076137543
C 5.601809501647949 2.1290788650512695 1.6201378107070923
C 8.223143577575684 1.1642035245895386 2.2255303859710693
O 8.076972961425781 -1.5470242500305176 2.297283411026001
C 5.673165798187256 -2.2854537963867188 1.2809131145477295
H 1.3489242792129517 -1.3962053060531616 -1.0542970895767212
H 5.297072410583496 0.20864465832710266 -1.9427140951156616
H 4.474191188812256 2.322643518447876 3.3485758304595947
H 5.611900806427002 3.971278429031372 0.6836462020874023
H 9.57248306274414 1.679456353187561 0.7428891658782959
H 8.9315824508667 1.8696194887161255 4.03435754776001
H 5.933305263519287 -3.858140468597412 -0.035980384796857834
H 4.474342346191406 -2.9499759674072266 2.83288836479187
