14
Generated by QM7 dataset
C 1.8960188627243042 0.05635163187980652 0.09408946335315704
C 4.689884662628174 0.05835474282503128 -0.07866930216550827
C 6.249551296234131 -1.9000818729400635 -0.2883343994617462
O 8.791421890258789 -1.3408362865447998 -0.36660686135292053
C 8.84072494506836 1.3760418891906738 -0.6097957491874695
C 6.223434925079346 2.397911310195923 0.05077693983912468
H 1.1307743787765503 -1.863024353981018 -0.008711637929081917
H 1.0789012908935547 1.1506919860839844 -1.459359884262085
H 1.2806862592697144 0.8950876593589783 1.8814302682876587
H 5.808167934417725 -3.8862974643707275 -0.3475017249584198
H 9.345678329467773 1.8330343961715698 -2.5674386024475098
H 10.305281639099121 2.1461052894592285 0.6320189237594604
H 5.623617172241211 3.850506067276001 -1.2914766073226929
H 6.189382076263428 3.1937882900238037 1.9607797861099243
