15
Generated by QM7 dataset
C 1.743177890777588 -0.25934600830078125 0.10402942448854446
N 4.460887432098389 -0.23315441608428955 0.5214699506759644
N 5.639056205749512 -2.544100522994995 1.1965935230255127
C 5.85117769241333 1.9007242918014526 -0.19091902673244476
O 4.871298313140869 3.8091208934783936 -1.0884066820144653
C 8.641358375549316 1.7613948583602905 0.20684942603111267
C 10.155595779418945 3.6462831497192383 -0.5450915098190308
H 0.9546140432357788 1.6377311944961548 0.33937591314315796
H 0.8352967500686646 -1.5360071659088135 1.453879714012146
H 1.3793678283691406 -0.9036481380462646 -1.8269872665405273
H 5.300228118896484 -3.8242008686065674 -0.21038320660591125
H 4.773599624633789 -3.224855422973633 2.7834153175354004
H 9.418281555175781 0.11478196829557419 1.1365946531295776
H 9.407642364501953 5.319106578826904 -1.4706794023513794
H 12.179814338684082 3.548111915588379 -0.2436046004295349
