16
Generated by QM7 dataset
N 1.8413680791854858 0.09836024791002274 -0.04231096804141998
C 4.586818695068359 0.048036839812994 -0.015495753847062588
C 5.670690059661865 2.1059107780456543 1.6495230197906494
C 8.28093147277832 1.07616126537323 2.2097513675689697
O 8.009113311767578 -1.610197901725769 2.4852921962738037
C 5.806070327758789 -2.2198612689971924 1.1826283931732178
C 4.931845188140869 -4.590730667114258 1.2286053895950317
H 1.2017335891723633 -1.2435343265533447 -1.263678789138794
H 1.2352006435394287 1.788852572441101 -0.7303602695465088
H 5.306804656982422 0.25579333305358887 -1.9486289024353027
H 4.598024845123291 2.284735679626465 3.418325662612915
H 5.722071647644043 3.9623589515686035 0.7418875694274902
H 9.598372459411621 1.4432594776153564 0.6527302861213684
H 9.072121620178223 1.8699028491973877 3.94697642326355
H 3.1822798252105713 -5.11223840713501 0.3042459189891815
H 5.960574150085449 -6.055665016174316 2.2270233631134033
