12
Generated by QM7 dataset
C 0.27612677216529846 1.8641014099121094 -0.2953642010688782
O -1.3235831260681152 -0.24237626791000366 0.2608200013637543
C 1.3330128192901611 -0.7663973569869995 0.010261212475597858
C 2.5843706130981445 -1.7093706130981445 2.4091362953186035
C 2.324571132659912 -4.389777183532715 3.3413760662078857
O 4.542202472686768 -3.555765390396118 2.0364632606506348
H 0.17922163009643555 2.654536008834839 -2.179553508758545
H 0.5943944454193115 3.231715202331543 1.1914156675338745
H 1.9078675508499146 -1.7147753238677979 -1.7195563316345215
H 2.9330251216888428 -0.2890903055667877 3.8488430976867676
H 1.0421650409698486 -5.639641761779785 2.3503658771514893
H 2.4769208431243896 -4.733669281005859 5.351232051849365
