13
Generated by QM7 dataset
O 2.046403408050537 -0.10153498500585556 0.6767676472663879
C 4.64218807220459 -0.03019782342016697 0.02690969966351986
C 5.396131992340088 -2.3126657009124756 -1.5781669616699219
C 6.38861608505249 -1.2143758535385132 -3.995429039001465
C 6.344944477081299 1.3049125671386719 -4.113914966583252
C 5.245104789733887 2.1649837493896484 -1.7152855396270752
O 4.799829006195068 4.384807109832764 -1.25141441822052
H 1.6169630289077759 1.5993508100509644 1.2505640983581543
H 5.787777423858643 0.0961681604385376 1.7449164390563965
H 3.8011841773986816 -3.5782341957092285 -1.9427329301834106
H 6.891490936279297 -3.397538661956787 -0.644245445728302
H 7.067783832550049 -2.398799419403076 -5.519209861755371
H 6.9140167236328125 2.542135238647461 -5.62238883972168
