13
Generated by QM7 dataset
C 1.7592027187347412 0.11587800830602646 0.3430419862270355
C 4.231342315673828 0.09939959645271301 -0.15027102828025818
C 5.857659816741943 2.318939685821533 0.06774668395519257
N 8.185613632202148 1.8196172714233398 -0.544808030128479
N 8.411870002746582 -0.6452847719192505 -1.4512341022491455
C 8.264698028564453 -2.4412615299224854 0.6306772232055664
C 5.937784194946289 -1.896472454071045 -0.9229611158370972
H 0.6443021297454834 -1.596591830253601 0.16742973029613495
H 0.7860504984855652 1.824965238571167 0.9244540333747864
H 5.140905380249023 4.13657283782959 0.7664729356765747
H 9.227249145507812 -4.220344066619873 0.31824877858161926
H 8.42982292175293 -1.7197452783584595 2.5396218299865723
H 5.334186553955078 -3.2175800800323486 -2.360872745513916
