18
Generated by QM7 dataset
C -2.3671844005584717 -1.4489285945892334 -0.9678799510002136
C -2.3712472915649414 1.4475491046905518 -0.9576376080513
C -0.0023054659832268953 2.077035903930664 0.5803349018096924
C 2.3758203983306885 1.453690767288208 -0.9425575733184814
C 2.3803558349609375 -1.4441665410995483 -0.9500220417976379
C 0.002796794753521681 -2.082024574279785 0.5672768950462341
N 0.03492213785648346 -0.007369931787252426 2.4287893772125244
H -2.2990975379943848 -2.213984251022339 -2.8882007598876953
H -4.074986457824707 -2.1627914905548096 -0.03813467174768448
H -4.08069372177124 2.1502249240875244 -0.021656261757016182
H -2.3076012134552 2.226494312286377 -2.87298846244812
H -0.0023432604502886534 3.9721665382385254 1.3966965675354004
H 4.079427242279053 2.1627726554870605 -0.00011338356853229925
H 2.320035696029663 2.2297255992889404 -2.859647035598755
H 4.084832191467285 -2.1525113582611084 -0.009259657934308052
H 2.328634023666382 -2.210582733154297 -2.8704938888549805
H 0.006765219382941723 -3.982201099395752 1.3730939626693726
H -1.595061182975769 -0.013190288096666336 3.4585390090942383
