22
Generated by QM7 dataset
C 1.7976775169372559 -0.982903242111206 0.17984522879123688
C 4.2307000160217285 -0.6030682921409607 1.6679856777191162
C 5.071136951446533 2.1869044303894043 1.8824129104614258
C 3.036109685897827 3.9196321964263916 3.0562729835510254
C 2.2926347255706787 3.257793426513672 5.757050514221191
N 7.473621368408203 2.2167811393737793 3.2970807552337646
C 8.728116035461426 4.6678690910339355 3.2690939903259277
H 1.4551836252212524 -3.002812623977661 -0.11077574640512466
H 1.9101351499557495 -0.079255111515522 -1.6768673658370972
H 0.16236527264118195 -0.21985073387622833 1.188165307044983
H 5.724207401275635 -1.6852388381958008 0.7163006663322449
H 4.0100178718566895 -1.4494577646255493 3.5472426414489746
H 5.439274311065674 2.8614611625671387 -0.04665733873844147
H 1.3362820148468018 3.8927414417266846 1.8723973035812378
H 3.682547092437744 5.887838840484619 3.0127904415130615
H 1.445923924446106 1.3760418891906738 5.870717525482178
H 0.8929333686828613 4.613936424255371 6.451222896575928
H 3.9187629222869873 3.324840784072876 7.031179428100586
H 8.669175148010254 0.9123786687850952 2.5310802459716797
H 7.688180923461914 6.074411392211914 4.369783878326416
H 9.004753112792969 5.367124557495117 1.3425936698913574
H 10.592897415161133 4.484773635864258 4.146663665771484
