10
Generated by QM7 dataset
C 1.8349429368972778 0.01593039184808731 0.0
C 4.361128807067871 0.03178519383072853 -0.0
C 5.749983310699463 2.3270654678344727 -0.0
C 6.932101249694824 4.264771938323975 -0.0
C 8.362680435180664 6.579346179962158 -0.0
O 7.307608604431152 8.634026527404785 -0.0
H 0.8004124164581299 -1.7542517185211182 0.0
H 0.7407726645469666 1.7527776956558228 0.0
H 5.404068946838379 -1.7356756925582886 -0.0
H 10.432440757751465 6.358456134796143 -0.0
