12
Generated by QM7 dataset
N 1.8414058685302734 -0.049624208360910416 -0.00944863073527813
C 4.382142543792725 0.05599258467555046 -0.005007774103432894
C 5.723299980163574 2.288496255874634 -0.006727424915879965
O 4.8277587890625 4.6393723487854 -0.010979308746755123
S 8.905277252197266 1.753231167793274 -0.0014172946102917194
C 8.48572063446045 -1.4543521404266357 0.0035526850260794163
C 5.963578701019287 -2.1074602603912354 0.0012472192756831646
H 0.7972187399864197 1.5648633241653442 -0.0003779452235903591
H 0.8356180191040039 -1.6785492897033691 0.009675397537648678
H 6.329845428466797 5.698053359985352 -0.012075349688529968
H 10.101758003234863 -2.704179286956787 0.007653390988707542
H 5.3081841468811035 -4.045619964599609 0.003798349527642131
