13
Generated by QM7 dataset
C 1.9464179277420044 0.01972874067723751 -0.013303671963512897
N 4.671195030212402 0.07094031572341919 0.00173854804597795
C 6.187341213226318 2.164794683456421 0.009543117135763168
C 8.603507041931152 1.2393579483032227 0.022620022296905518
O 10.71353816986084 2.63718843460083 0.0337505079805851
C 8.381105422973633 -1.3985106945037842 0.02167515829205513
N 5.96010160446167 -2.1283607482910156 0.00852266512811184
H 1.2221993207931519 1.9553751945495605 0.000869274022988975
H 1.3034764528274536 -0.9847173690795898 1.6722564697265625
H 1.3223358392715454 -0.9534046053886414 -1.7240349054336548
H 5.419356822967529 4.054596424102783 0.0050644660368561745
H 10.28954029083252 4.424774646759033 0.031048201024532318
H 9.859986305236816 -2.8091156482696533 0.029800981283187866
