14
Generated by QM7 dataset
C 2.4424898624420166 -0.7125401496887207 -0.4740944802761078
N 5.176186561584473 -0.3710099458694458 -0.4172704219818115
N 5.972592830657959 2.0537166595458984 -0.19339457154273987
C 8.404991149902344 2.293484926223755 -0.23888027667999268
C 9.613301277160645 4.7991108894348145 0.0006047123461030424
C 12.129735946655273 5.011553764343262 -0.02226097323000431
H 1.9922059774398804 -2.713684558868408 -0.7326090335845947
H 1.6043775081634521 0.33691927790641785 -2.0470268726348877
H 1.5798299312591553 -0.0725276917219162 1.2937253713607788
H 5.910515308380127 -1.4894254207611084 0.9776498079299927
H 9.690950393676758 0.6609694957733154 -0.46009162068367004
H 8.370333671569824 6.415903568267822 0.18999306857585907
H 13.369547843933105 3.3882977962493896 -0.2151453197002411
H 13.012786865234375 6.855151653289795 0.15240640938282013
