14
Generated by QM7 dataset
C 1.8820916414260864 0.011867480352520943 -0.015250089578330517
N 4.61193323135376 -0.005121157970279455 -0.0006803013966418803
C 6.131197452545166 2.094081163406372 0.006519555114209652
C 8.610612869262695 1.2884719371795654 0.020352350547909737
C 8.54811954498291 -1.3663853406906128 0.021183829754590988
O 10.545540809631348 -2.9186441898345947 0.032692261040210724
C 6.075620651245117 -2.147106885910034 0.008125822059810162
H 1.2009587287902832 1.961592435836792 0.003987322095781565
H 1.2168513536453247 -0.9833000898361206 1.6676833629608154
H 1.2361077070236206 -0.9440127015113831 -1.7281923294067383
H 5.344655513763428 3.981539487838745 0.0012850137427449226
H 10.269376754760742 2.481682777404785 0.028780529275536537
H 9.979586601257324 -4.665034770965576 0.030405692756175995
H 5.228834629058838 -4.006105899810791 0.004289678297936916
