10
Generated by QM7 dataset
O 1.699109435081482 0.23974955081939697 -0.03577251732349396
N 4.29701042175293 -0.21297213435173035 -0.25348785519599915
C 5.505320072174072 1.8475852012634277 0.2620294392108917
C 8.290531158447266 1.9594570398330688 0.19080564379692078
C 9.492623329162598 4.11472749710083 0.7322877645492554
H 0.9780466556549072 -1.4038397073745728 -0.45582082867622375
H 4.508848667144775 3.608734369277954 0.7766585350036621
H 9.283997535705566 0.24086450040340424 -0.3121449649333954
H 8.494091987609863 5.8342461585998535 1.2356730699539185
H 11.542088508605957 4.197251796722412 0.6799423694610596
