19
Generated by QM7 dataset
C 3.442986488342285 -1.310638427734375 -1.308559775352478
N 3.329017162322998 1.1394481658935547 -0.06124602258205414
C 5.762266159057617 2.4651477336883545 -0.09664059430360794
C 6.113283157348633 4.636783123016357 -1.8990802764892578
C 5.862837314605713 5.137485027313232 0.8940483331680298
C 8.081961631774902 5.971742630004883 2.4234793186187744
N 8.070623397827148 8.716872215270996 2.5362014770507812
H 1.5637861490249634 -2.1729583740234375 -1.3154950141906738
H 4.732856750488281 -2.592477560043335 -0.3214613199234009
H 4.05714750289917 -1.1208343505859375 -3.2743284702301025
H 2.718200922012329 0.8993017673492432 1.7512280941009521
H 7.409502983093262 1.293971061706543 0.28383687138557434
H 4.539065361022949 5.164205551147461 -3.1002469062805176
H 7.946033954620361 4.855594635009766 -2.783283233642578
H 4.107810974121094 5.953903675079346 1.5698710680007935
H 9.865674018859863 5.309998035430908 1.6070797443389893
H 7.933939456939697 5.201376914978027 4.337280750274658
H 8.223143577575684 9.423025131225586 0.7518086433410645
H 9.626718521118164 9.319222450256348 3.4935555458068848
