14
Generated by QM7 dataset
C 1.7297229766845703 0.0022676712833344936 0.12876594066619873
C 4.606642246246338 0.0008125822641886771 0.17891927063465118
C 5.714739799499512 2.2024381160736084 -1.247635006904602
C 7.183869361877441 1.3559352159500122 -3.1350934505462646
C 7.180770397186279 -1.3671979904174805 -3.1298398971557617
C 5.711942672729492 -2.205272674560547 -1.243269681930542
H 0.9810702204704285 1.6782280206680298 1.0865925550460815
H 0.9791805148124695 -1.6685336828231812 1.0941513776779175
H 0.9875897765159607 -0.00173854804597795 -1.8057466745376587
H 5.290212631225586 0.0023621576838195324 2.133481979370117
H 5.3801069259643555 4.163784980773926 -0.7956125140190125
H 8.22586441040039 2.500580072402954 -4.463192939758301
H 8.220365524291992 -2.5176820755004883 -4.454972743988037
H 5.373851776123047 -4.165013313293457 -0.7857670187950134
