20
Generated by QM7 dataset
C 1.644609808921814 1.7799897193908691 -1.9174295663833618
C 4.459507942199707 1.5637483596801758 -2.0238587856292725
C 6.000277519226074 2.307487964630127 -0.1459057480096817
C 8.8546142578125 2.1759440898895264 -0.05994211137294769
C 9.65676498413086 0.4813321530818939 2.1564230918884277
C 10.109959602355957 1.2159820795059204 -2.4981045722961426
N 9.760964393615723 4.747483253479004 0.44650450348854065
H 0.7880724668502808 -0.09144384413957596 -2.117532730102539
H 0.9722641110420227 2.972463607788086 -3.4673449993133545
H 0.9861347079277039 2.6032679080963135 -0.13781772553920746
H 5.22148323059082 0.751940906047821 -3.748044967651367
H 5.137957572937012 3.1096389293670654 1.546419620513916
H 8.884736061096191 1.153753399848938 3.9593164920806885
H 11.718910217285156 0.4132642149925232 2.351405143737793
H 8.99332046508789 -1.463120460510254 1.8844349384307861
H 9.623297691345215 2.396909713745117 -4.1300530433654785
H 9.53504753112793 -0.7279413938522339 -2.925976276397705
H 12.176053047180176 1.2171348333358765 -2.331033945083618
H 9.327008247375488 5.864953994750977 -1.0617237091064453
H 11.681946754455566 4.741643905639648 0.5639509558677673
