17
Generated by QM7 dataset
C 1.8991180658340454 0.04781007021665573 0.10102476179599762
C 4.766777515411377 -0.01778232306241989 -0.1998763382434845
C 5.6847686767578125 -2.3720030784606934 -1.6294541358947754
C 6.268032550811768 -1.2844468355178833 -4.146777153015137
C 6.8996357917785645 -2.860856294631958 -6.372175216674805
C 6.173395156860352 1.216189980506897 -3.9713916778564453
O 5.531984329223633 2.182935953140259 -1.6380712985992432
H 1.3220713138580322 1.7838258743286133 1.0686023235321045
H 1.225317358970642 -1.573650598526001 1.1909242868423462
H 0.950910210609436 0.05162731930613518 -1.737886667251587
H 5.65141487121582 0.08736203610897064 1.668458104133606
H 4.258762359619141 -3.8685717582702637 -1.6935536861419678
H 7.405817985534668 -3.132523536682129 -0.7673044204711914
H 7.2747087478637695 -1.697030782699585 -8.042069435119629
H 5.32963228225708 -4.128541469573975 -6.821892261505127
H 8.580774307250977 -4.004764080047607 -5.997405052185059
H 6.566042423248291 2.6181211471557617 -5.396150588989258
