20
Generated by QM7 dataset
C 5.340763092041016 -1.6419074535369873 -1.0596638917922974
C 5.286338806152344 -0.0463927760720253 1.334108829498291
C 7.204826354980469 2.150810718536377 1.2997536659240723
C 6.794623851776123 3.9370365142822266 3.5740389823913574
N 7.278034687042236 2.7375895977020264 6.020534992218018
C 9.965300559997559 1.246312141418457 1.1724238395690918
O 10.580482482910156 -0.3695359528064728 3.2277846336364746
H 3.8087809085845947 -3.0320656299591064 -1.0185812711715698
H 7.1191086769104 -2.6805577278137207 -1.2390366792678833
H 5.091999530792236 -0.466989129781723 -2.743901252746582
H 5.605627059936523 -1.2855240106582642 2.96225905418396
H 3.376354694366455 0.7319476008415222 1.5441519021987915
H 6.849898338317871 3.277125358581543 -0.40797296166419983
H 4.858542442321777 4.6723480224609375 3.5514378547668457
H 8.058245658874512 5.568399429321289 3.3886756896972656
H 5.909343719482422 1.4163497686386108 6.35664176940918
H 7.050889492034912 4.0562214851379395 7.412941932678223
H 11.261595726013184 2.8597981929779053 1.2126561403274536
H 10.332304000854492 0.21609018743038177 -0.5815632343292236
H 9.924728393554688 0.48352423310279846 4.741908550262451
