17
Generated by QM7 dataset
C 1.499478816986084 0.19539767503738403 -0.1367216855287552
C 4.268362045288086 0.007143164984881878 0.34187036752700806
C 5.99347448348999 -1.7282490730285645 -1.1402418613433838
C 5.264436721801758 -2.8144447803497314 -3.6413888931274414
C 5.614773273468018 -0.6252158880233765 -5.492432117462158
O 5.398815155029297 1.6613337993621826 -4.034224987030029
C 6.161282062530518 1.0870649814605713 -1.469942331314087
H 0.7640729546546936 1.9480619430541992 0.679810106754303
H 0.5198825597763062 -1.3870211839675903 0.7658115029335022
H 1.0130821466445923 0.18736635148525238 -2.1452548503875732
H 4.67013692855835 0.21463508903980255 2.342806816101074
H 7.5226030349731445 -2.696620225906372 -0.1973818987607956
H 6.43481969833374 -4.432503700256348 -4.177409648895264
H 3.295228958129883 -3.4491658210754395 -3.6165390014648438
H 7.503592014312744 -0.6604592800140381 -6.339048385620117
H 4.200275421142578 -0.6369699835777283 -6.9983930587768555
H 7.787674903869629 2.0686075687408447 -0.7043954133987427
