18
Generated by QM7 dataset
C 2.7837367057800293 0.3400184214115143 2.6603941917419434
C 3.4896817207336426 1.1201351881027222 -0.006765219382941723
C 5.741177082061768 2.893794298171997 0.031917475163936615
C 5.210636138916016 5.705272197723389 0.2535823583602905
C 4.9952263832092285 6.891453266143799 -2.3493831157684326
N 7.982410907745361 1.8994015455245972 -0.14048224687576294
O 9.876256942749023 3.740013599395752 -0.10690180957317352
H 1.1630319356918335 -0.9442772269248962 2.630687713623047
H 2.286663055419922 1.9839856624603271 3.814544439315796
H 4.358936786651611 -0.6264442205429077 3.5922369956970215
H 1.8940913677215576 2.0617668628692627 -0.9266461133956909
H 3.9649667739868164 -0.5527827143669128 -1.1295082569122314
H 6.694694995880127 6.635262966156006 1.353743076324463
H 3.439150333404541 5.971988201141357 1.290985345840454
H 6.752010345458984 6.670015335083008 -3.4193272590637207
H 4.585288047790527 8.911797523498535 -2.188983201980591
H 3.4790802001953125 6.009007930755615 -3.4460668563842773
H 11.41162109375 2.7278385162353516 -0.23408037424087524
