17
Generated by QM7 dataset
C 4.250258445739746 -1.4725123643875122 -2.5483713150024414
N 3.4261300563812256 0.6465131044387817 -0.9918983578681946
C 5.542982578277588 2.1234097480773926 0.08101256191730499
C 6.973618507385254 0.8673465251922607 2.209070920944214
C 6.977492332458496 3.900073528289795 -1.6326099634170532
C 5.1723127365112305 4.951328277587891 0.28275972604751587
H 5.397209167480469 -0.8399832844734192 -4.148874759674072
H 2.5934412479400635 -2.4548299312591553 -3.3019185066223145
H 5.331011772155762 -2.847288131713867 -1.4458861351013184
H 2.2736806869506836 1.7744150161743164 -2.0462710857391357
H 8.358844757080078 2.1449904441833496 3.0683672428131104
H 8.003122329711914 -0.791171669960022 1.5232515335083008
H 5.668819427490234 0.2597995400428772 3.696946859359741
H 6.447348594665527 4.012776851654053 -3.607600688934326
H 8.983436584472656 4.16325569152832 -1.3062920570373535
H 5.954508304595947 5.9315290451049805 1.9038045406341553
H 3.4207255840301514 5.771393775939941 -0.39172133803367615
