12
Generated by QM7 dataset
C 1.8584322929382324 0.0005102260620333254 0.006500658113509417
C 4.668039321899414 0.08050233125686646 0.006462863180786371
N 5.7990593910217285 2.331336259841919 0.001889726147055626
S 8.904502868652344 1.9066202640533447 0.0035337877925485373
C 8.81326675415039 -1.3250004053115845 0.011206075549125671
O 10.91613483428955 -2.697772979736328 0.015174500644207
C 6.316315174102783 -2.068758726119995 0.012226528488099575
H 1.165866494178772 -1.948704481124878 -0.017763426527380943
H 1.105111837387085 0.9666327238082886 -1.6608047485351562
H 1.1075307130813599 0.9247564077377319 1.698372483253479
H 10.41673755645752 -4.464799404144287 0.019426384940743446
H 5.688018798828125 -4.011775016784668 0.01678076758980751
