14
Generated by QM7 dataset
C 2.668274402618408 4.648858547210693 1.1048473119735718
N 5.017506122589111 4.6493120193481445 0.45487597584724426
O 5.896002292633057 2.150111436843872 0.45517832040786743
C 8.51208209991455 2.1688387393951416 -0.3272438645362854
C 10.477416038513184 3.006138563156128 1.6258258819580078
O 11.948473930358887 0.7244454026222229 1.2472947835922241
C 9.896533966064453 -0.3685910701751709 -0.19872359931468964
H 1.6208369731903076 6.443323612213135 1.2138277292251587
H 1.6182481050491333 2.9087231159210205 1.5687183141708374
H 8.74117374420166 3.0866408348083496 -2.172844886779785
H 9.809473991394043 3.148869514465332 3.577648401260376
H 11.547795295715332 4.701166152954102 1.1255019903182983
H 10.545937538146973 -1.1081920862197876 -2.0156197547912598
H 8.942789077758789 -1.86378014087677 0.8646063804626465
