19
Generated by QM7 dataset
C 1.888138771057129 -0.3804018795490265 0.03584810346364975
C 4.752869129180908 -0.0582035630941391 0.027552207931876183
C 5.720938205718994 2.707637310028076 0.0
C 4.797070026397705 4.109323024749756 -2.3780312538146973
C 4.7965216636657715 4.154449462890625 2.350630283355713
C 8.449702262878418 2.707637310028076 0.0
C 10.698779106140137 2.707637310028076 0.0
H 1.4096033573150635 -2.3935649394989014 0.055973686277866364
H 1.018826961517334 0.44397225975990295 -1.6463671922683716
H 1.0273873805999756 0.4737165570259094 1.7107690572738647
H 5.506435394287109 -1.07069993019104 -1.622481107711792
H 5.514107704162598 -1.0410878658294678 1.6890372037887573
H 5.356542110443115 3.109506607055664 -4.104919910430908
H 5.6037750244140625 6.016321182250977 -2.4868040084838867
H 2.7386667728424072 4.318704605102539 -2.400972604751587
H 5.346677780151367 3.1826012134552 4.096094608306885
H 2.7392337322235107 4.373506546020508 2.363593816757202
H 5.611579418182373 6.05997371673584 2.428713798522949
H 12.712565422058105 2.707637310028076 -0.0
