15
Generated by QM7 dataset
C 7.4639081954956055 -2.2868142127990723 -0.7920598387718201
S 5.242043495178223 0.012339911423623562 0.20384475588798523
O 3.4064393043518066 0.3500339686870575 -1.8010034561157227
O 4.474550247192383 -0.595244824886322 2.7603795528411865
C 7.126119613647461 2.8756906986236572 0.45249491930007935
C 7.267093181610107 4.449378967285156 -1.910361886024475
C 5.605192184448242 5.2707109451293945 0.24923597276210785
H 8.968413352966309 -2.4122543334960938 0.6133106350898743
H 8.221631050109863 -1.7297797203063965 -2.6274940967559814
H 6.49005651473999 -4.098891735076904 -0.949303925037384
H 8.710786819458008 2.8368380069732666 1.7369606494903564
H 6.342601299285889 3.8072690963745117 -3.6233232021331787
H 8.980299949645996 5.519738674163818 -2.2517409324645996
H 6.201174259185791 6.878300666809082 1.369295597076416
H 3.57196044921875 5.146707057952881 0.0002834589104168117
