19
Generated by QM7 dataset
N 4.145964622497559 -0.8165884613990784 -2.653080940246582
C 4.494694709777832 0.08390384167432785 -0.07135605812072754
C 6.094083309173584 2.473254680633545 -0.052836742252111435
C 4.858315944671631 4.931051254272461 -1.0814902782440186
C 5.971383571624756 6.377126693725586 1.1882598400115967
N 8.447094917297363 7.4003376960754395 0.5028372406959534
C 6.319735527038574 3.8220088481903076 2.543363571166992
H 3.0828235149383545 -2.422534465789795 -2.6300830841064453
H 5.849344730377197 -1.3158352375030518 -3.400883436203003
H 5.416522026062012 -1.3946367502212524 1.0469838380813599
H 2.6381144523620605 0.43577083945274353 0.7743152976036072
H 7.965422630310059 2.1271703243255615 -0.8900421261787415
H 2.784700393676758 4.894692897796631 -1.0643882751464844
H 5.468848705291748 5.517017841339111 -2.96943998336792
H 4.713109493255615 7.732230186462402 2.1067800521850586
H 9.587563514709473 6.20682430267334 -0.48771941661834717
H 9.480302810668945 8.007242202758789 2.0090246200561523
H 8.098969459533691 3.5206165313720703 3.5550284385681152
H 4.765738010406494 3.393645763397217 3.84818172454834
