18
Generated by QM7 dataset
C 1.6656991243362427 0.1763303428888321 0.3559299111366272
C 4.519658088684082 0.14537663757801056 -0.027268748730421066
C 5.975522041320801 2.006303310394287 1.7155122756958008
C 7.742019176483154 -0.22538763284683228 2.268559455871582
N 5.742424011230469 -1.949517011642456 1.37953782081604
C 5.3123602867126465 0.2098918855190277 -2.740442991256714
C 4.8298563957214355 -1.7028322219848633 -4.3294572830200195
H 1.16261625289917 0.11258988082408905 2.3653135299682617
H 0.7476134300231934 -1.4417476654052734 -0.5543322563171387
H 0.8354290127754211 1.9032187461853027 -0.43068748712539673
H 4.917407512664795 2.6535723209381104 3.3769783973693848
H 6.86303186416626 3.649117946624756 0.827813446521759
H 9.454771995544434 -0.2605743408203125 1.1039212942123413
H 8.276433944702148 -0.4689355492591858 4.249389171600342
H 6.377598762512207 -3.3968582153320312 0.2831565737724304
H 6.280429363250732 1.8846049308776855 -3.428983688354492
H 3.8401124477386475 -3.3961968421936035 -3.7269556522369385
H 5.4100022315979 -1.5996153354644775 -6.294809818267822
