17
Generated by QM7 dataset
C 1.869430422782898 0.12256763875484467 -0.07007104158401489
C 4.758368015289307 -0.059507474303245544 0.02791125513613224
C 5.691874027252197 -0.029498625546693802 2.7565245628356934
C 5.735394477844238 -2.3485705852508545 -1.4357572793960571
C 6.489319324493408 -1.0873106718063354 -3.8447046279907227
N 6.521709442138672 1.353384017944336 -3.7970645427703857
N 5.909721851348877 2.01983380317688 -1.4014965295791626
H 1.1657153367996216 0.12595024704933167 -2.018775463104248
H 1.194798231124878 1.8548418283462524 0.8430824279785156
H 0.9988903403282166 -1.484512209892273 0.9033268690109253
H 7.7595744132995605 -0.10744982957839966 2.8553194999694824
H 4.956203460693359 -1.6568552255630493 3.803943157196045
H 5.08353328704834 1.6879034042358398 3.7413365840911865
H 4.300014972686768 -3.7855560779571533 -1.8125686645507812
H 7.415984630584717 -3.2299766540527344 -0.6134051084518433
H 7.000187873840332 -2.2093355655670166 -5.514579772949219
H 4.910339832305908 3.6690733432769775 -1.3253782987594604
