14
Generated by QM7 dataset
C 1.9347015619277954 0.13129816949367523 0.3426073491573334
C 4.728170394897461 -0.3092725872993469 0.05340366065502167
C 5.687036514282227 -2.6551029682159424 -0.12373926490545273
C 6.377504348754883 2.016148805618286 -0.10523884743452072
C 6.551264762878418 3.273818254470825 2.3662772178649902
C 6.7020649909973145 4.309142589569092 4.381008625030518
H 1.5246877670288086 1.0925073623657227 2.127415895462036
H 0.8656457662582397 -1.641038179397583 0.3282265365123749
H 1.2281707525253296 1.2989788055419922 -1.2124860286712646
H 4.486908912658691 -4.317041397094727 -0.029914364218711853
H 7.701144218444824 -2.978548526763916 -0.34865447878837585
H 5.604719638824463 3.315694570541382 -1.5215507745742798
H 8.282801628112793 1.5186028480529785 -0.7523755431175232
H 6.834100246429443 5.220122814178467 6.171694278717041
