14
Generated by QM7 dataset
C 1.7762103080749512 -0.25001075863838196 -0.008012439124286175
C 4.535248279571533 0.1382712572813034 -0.008862815797328949
C 6.085144996643066 2.231879949569702 -0.001814137096516788
C 5.36583948135376 4.929104804992676 0.010166727006435394
C 8.538254737854004 1.1783009767532349 -0.008976198732852936
N 8.502463340759277 -1.342442512512207 -0.019672049209475517
O 5.969720363616943 -1.9959665536880493 -0.019785432144999504
H 0.7650934457778931 1.5533170700073242 0.015117809176445007
H 1.1985210180282593 -1.3305561542510986 1.6578000783920288
H 1.192171573638916 -1.2914388179779053 -1.6963694095611572
H 7.035204887390137 6.150548458099365 0.02301686443388462
H 4.237163066864014 5.372377872467041 1.6860325336456299
H 4.249635219573975 5.390235900878906 -1.6692140102386475
H 10.344001770019531 2.1332173347473145 -0.0069541921839118
