18
Generated by QM7 dataset
C 1.7654577493667603 -0.1627999097108841 -0.12768879532814026
C 4.661255359649658 -0.06540342420339584 0.12096136808395386
C 5.433208465576172 -1.520341396331787 2.5203654766082764
C 5.85866117477417 -1.377081274986267 -2.181480884552002
C 5.47553825378418 2.6944849491119385 0.11251429468393326
C 6.748211860656738 3.939814329147339 1.9121949672698975
H 1.1176029443740845 0.7835560441017151 -1.8533300161361694
H 0.841702938079834 0.7631658911705017 1.4793531894683838
H 1.0866681337356567 -2.11830735206604 -0.20017868280410767
H 4.593225002288818 -0.6847233772277832 4.219550609588623
H 7.489816188812256 -1.5440574884414673 2.7661054134368896
H 4.80215311050415 -3.4914958477020264 2.428165912628174
H 5.304536819458008 -0.4585798382759094 -3.9539873600006104
H 5.272713661193848 -3.360084295272827 -2.300325870513916
H 7.927420139312744 -1.3390599489212036 -2.0756561756134033
H 4.948361396789551 3.7639377117156982 -1.5701355934143066
H 7.360086441040039 3.053835153579712 3.6553728580474854
H 7.21523904800415 5.9239325523376465 1.6691572666168213
