15
Generated by QM7 dataset
C -3.4072518348693848 1.2377327680587769 0.5423136353492737
O -3.3016538619995117 -1.4779359102249146 -0.4378873407840729
C -0.6869532465934753 -1.3418000936508179 0.4191790521144867
C 1.7087281942367554 -1.9025951623916626 -1.0037280321121216
C 3.3947229385375977 0.3322138488292694 -0.03238990530371666
O 1.627791166305542 2.402559995651245 0.4553106129169464
C -0.7298689484596252 1.4566954374313354 -0.47339528799057007
H -4.845163345336914 2.3219821453094482 -0.4663655161857605
H -3.7159006595611572 1.315381646156311 2.5878098011016846
H -0.5350192785263062 -1.7077077627182007 2.4606313705444336
H 2.544062614440918 -3.730565071105957 -0.5238698720932007
H 1.4675801992416382 -1.816650390625 -3.0603926181793213
H 4.315454006195068 -0.1391972303390503 1.7575587034225464
H 4.795897960662842 0.9155156016349792 -1.4336974620819092
H -0.8123743534088135 1.7819361686706543 -2.5299086570739746
