12
Generated by QM7 dataset
N 2.0560598373413086 0.32847219705581665 0.3507331609725952
C 4.685046672821045 -0.11111589521169662 -0.351016640663147
C 6.091154098510742 2.3255724906921387 -0.18906709551811218
C 7.236819744110107 3.2058825492858887 2.2606794834136963
O 8.742704391479492 2.069798231124878 0.3112756907939911
H 1.110232949256897 -1.3491699695587158 0.2952885925769806
H 1.2191190719604492 1.4471900463104248 -0.9751364588737488
H 4.784333229064941 -0.8586915731430054 -2.2773656845092773
H 5.49847936630249 -1.5294876098632812 0.9185391664505005
H 5.515109062194824 3.7114222049713135 -1.575918197631836
H 6.882401466369629 2.1142444610595703 3.955026626586914
H 7.439322471618652 5.219385623931885 2.564547300338745
