15
Generated by QM7 dataset
C 3.8848423957824707 -1.0280109643936157 1.0291259288787842
N 3.6940367221832275 1.6879034042358398 0.8472586870193481
C 5.799758434295654 3.183640480041504 0.46681904792785645
C 5.275813102722168 5.839083671569824 -0.5520834922790527
O 3.410672187805176 6.218295097351074 -1.864366054534912
N 8.061647415161133 2.3890295028686523 0.9318239688873291
C 10.225553512573242 4.00034236907959 0.4286465644836426
H 2.0182652473449707 -1.8315036296844482 1.4059373140335083
H 5.1412835121154785 -1.5867085456848145 2.5729565620422363
H 4.588746547698975 -1.8290091753005981 -0.7421143651008606
H 2.130496025085449 2.326744318008423 -0.07936849445104599
H 6.606520175933838 7.318531513214111 0.04412510618567467
H 11.957280158996582 2.900994062423706 0.6950979828834534
H 10.300254821777344 5.593173503875732 1.7453510761260986
H 10.236854553222656 4.691415309906006 -1.5210217237472534
