14
Generated by QM7 dataset
C 1.8034412860870361 -0.02362157590687275 0.09172730892896652
C 4.666224956512451 0.034619782119989395 0.05548235774040222
C 5.953959941864014 2.059272289276123 1.7647207975387573
C 7.888321399688721 -0.02428298071026802 2.4459481239318848
O 10.020593643188477 -0.023905035108327866 3.276444911956787
C 6.037712574005127 -2.10269832611084 1.549216389656067
H 1.0949262380599976 -1.620988130569458 -1.0142349004745483
H 1.0305054187774658 1.7102210521697998 -0.7317397594451904
H 1.0676196813583374 -0.2006700187921524 2.0178117752075195
H 5.350438117980957 0.15208515524864197 -1.9028974771499634
H 4.850757122039795 2.691631317138672 3.3950064182281494
H 6.742372989654541 3.6826415061950684 0.7647343873977661
H 6.888429641723633 -3.5831096172332764 0.39083316922187805
H 4.964688301086426 -2.9424924850463867 3.1055002212524414
