11
Generated by QM7 dataset
C 5.552091121673584 -2.295318126678467 0.7321743965148926
C 4.508905410766602 -0.045995935797691345 0.2192838191986084
C 5.809849739074707 2.3091318607330322 0.16724076867103577
N 4.753209114074707 4.515840530395508 -0.34185144305229187
C 6.576964855194092 6.385290145874023 -0.22315776348114014
N 8.957018852233887 5.806977272033691 0.335653156042099
S 9.013748168945312 2.685225248336792 0.7649044394493103
H 4.385411739349365 -3.985281229019165 0.7223289012908936
H 7.53594446182251 -2.5642261505126953 1.170250654220581
H 2.4992005825042725 0.04183853790163994 -0.19955508410930634
H 6.086883544921875 8.339058876037598 -0.5837364196777344
