17
Generated by QM7 dataset
O 1.705024242401123 0.2959878146648407 0.11122927814722061
C 4.381159782409668 0.12617701292037964 -0.027797872200608253
C 5.481169700622559 2.7827351093292236 0.06823801249265671
C 8.360828399658203 2.7463200092315674 -0.07628824561834335
C 9.45167350769043 5.412837028503418 0.007899055257439613
C 12.300642967224121 5.429145336151123 -0.14384596049785614
O 13.623356819152832 3.530745506286621 -0.28206053376197815
H 1.054599404335022 -1.4219433069229126 0.04714866727590561
H 4.890252113342285 -0.8207836747169495 -1.7950319051742554
H 5.053051948547363 -1.009964108467102 1.564806580543518
H 4.86113166809082 3.719623565673828 1.811359167098999
H 4.697141170501709 3.9064419269561768 -1.4877814054489136
H 8.959909439086914 1.8033089637756348 -1.8225653171539307
H 9.123956680297852 1.6303989887237549 1.495359182357788
H 8.91595458984375 6.361215114593506 1.7680466175079346
H 8.738018035888672 6.537318706512451 -1.5762584209442139
H 13.172733306884766 7.324370861053467 -0.11786221712827682
