17
Generated by QM7 dataset
C 2.867243766784668 5.075540065765381 0.17413826286792755
C 5.135444164276123 3.651801347732544 1.0819815397262573
N 7.136153697967529 3.4842770099639893 -0.30838441848754883
N 8.987310409545898 2.123655319213867 0.8441784381866455
C 11.338489532470703 3.572413921356201 1.4393287897109985
C 12.446038246154785 2.7239835262298584 -1.100368618965149
C 10.54765796661377 0.5422002077102661 -0.8981301188468933
H 1.237260341644287 3.806569814682007 0.17408157885074615
H 3.1706202030181885 5.8172383308410645 -1.7294774055480957
H 2.49220871925354 6.634488105773926 1.4755548238754272
H 4.999213695526123 2.7830941677093506 2.977093458175659
H 12.347092628479004 2.8308098316192627 3.090892791748047
H 11.102953910827637 5.613941669464111 1.678681492805481
H 12.077542304992676 4.028801441192627 -2.666252374649048
H 14.443327903747559 2.202230215072632 -1.0984221696853638
H 9.635581016540527 -0.019010644406080246 -2.6682932376861572
H 11.308744430541992 -1.1557564735412598 0.01404066476970911
