18
Generated by QM7 dataset
C 2.6971871852874756 5.017884254455566 -2.6543092727661133
C 4.857654571533203 4.496565341949463 -0.8458414077758789
O 6.989530086517334 3.7030506134033203 -2.287891387939453
C 9.14396858215332 3.07507586479187 -0.7806458473205566
C 10.873125076293945 1.4528781175613403 -2.418320417404175
C 10.524754524230957 5.457812309265137 0.07197967171669006
H 1.010323166847229 5.632272243499756 -1.6305501461029053
H 2.2351303100585938 3.32259202003479 -3.747270345687866
H 3.2244019508361816 6.485898971557617 -4.014420986175537
H 4.314301490783691 3.003549575805664 0.4807274341583252
H 5.301494598388672 6.2172746658325195 0.21026982367038727
H 8.556169509887695 1.9586633443832397 0.8642284274101257
H 11.448622703552246 2.470552444458008 -4.126916408538818
H 9.8777494430542 -0.24950054287910461 -3.0476746559143066
H 12.568814277648926 0.8776077032089233 -1.3843377828598022
H 10.94217586517334 6.686455726623535 -1.5404669046401978
H 12.295804977416992 4.993506908416748 1.0332266092300415
H 9.365974426269531 6.562206268310547 1.3803693056106567
