15
Generated by QM7 dataset
O 2.1438941955566406 0.2832321524620056 0.43150007724761963
C 4.764811992645264 -0.06391053646802902 -0.07536228001117706
C 5.296335220336914 -2.762401580810547 -1.011494755744934
O 5.494152069091797 -2.6433300971984863 -3.7329838275909424
C 6.114001274108887 -0.07551345974206924 -4.427344799041748
C 3.9983582496643066 1.7923674583435059 -4.597836017608643
C 5.558516025543213 1.5966296195983887 -2.215590476989746
H 1.8449018001556396 2.0942134857177734 0.49389880895614624
H 5.8032546043396 0.32697930932044983 1.6701210737228394
H 3.8127682209014893 -4.105165481567383 -0.4969223737716675
H 7.1218109130859375 -3.4350874423980713 -0.3070237934589386
H 7.807913780212402 0.2596672773361206 -5.526182651519775
H 4.27047872543335 3.431856155395508 -5.793257713317871
H 2.084178924560547 1.0621017217636108 -4.601653099060059
H 6.89126443862915 3.0604681968688965 -1.7285135984420776
