19
Generated by QM7 dataset
C 1.841821551322937 -0.026796316727995872 0.20552662014961243
C 4.699427604675293 0.021297212690114975 0.04705417901277542
C 6.075904369354248 2.0162055492401123 1.687790036201477
C 8.149632453918457 0.002664513885974884 2.214418888092041
C 9.08449935913086 -0.06854036450386047 4.929350852966309
O 10.320210456848145 0.08985647559165955 0.5560708045959473
C 6.1377739906311035 -2.0348570346832275 1.5538272857666016
H 1.0857421159744263 -1.661107063293457 -0.8130735754966736
H 1.0386123657226562 1.6787004470825195 -0.6466831564903259
H 1.1851038932800293 -0.13367922604084015 2.16449236869812
H 5.312379360198975 0.09790670871734619 -1.936440110206604
H 5.0238938331604 2.6206343173980713 3.3681533336639404
H 6.701517105102539 3.7004239559173584 0.6652969717979431
H 7.517368316650391 -0.1324320137500763 6.279578685760498
H 10.21854305267334 1.6090073585510254 5.358602046966553
H 10.265955924987793 -1.736450433731079 5.255025863647461
H 9.646919250488281 0.12419280409812927 -1.1517503261566162
H 6.814012050628662 -3.628028631210327 0.4233364462852478
H 5.107740879058838 -2.7803919315338135 3.190934896469116
