16
Generated by QM7 dataset
C -3.295606851577759 1.203566551208496 0.5439576506614685
O -3.2527666091918945 -1.4946788549423218 -0.4960153102874756
C -0.6340219974517822 -1.4312785863876343 0.3659265637397766
C 1.725244402885437 -2.071442127227783 -1.049912929534912
C 3.4295315742492676 0.11224973201751709 -0.037737831473350525
N 1.6698187589645386 2.170917272567749 0.8219552636146545
C -0.6215309500694275 1.38687002658844 -0.49023276567459106
H -4.716832160949707 2.3345675468444824 -0.4367346167564392
H -3.604180097579956 1.232309341430664 2.5908713340759277
H -0.5258352160453796 -1.8838491439819336 2.3963239192962646
H 2.4887125492095947 -3.922485589981079 -0.5403105020523071
H 1.502162218093872 -1.9773527383804321 -3.107163190841675
H 4.569244384765625 -0.5218478441238403 1.5701355934143066
H 4.699711322784424 0.8000155687332153 -1.5179603099822998
H 1.5491596460342407 2.1218032836914062 2.7471516132354736
H -0.6020667552947998 1.7861313819885254 -2.5302488803863525
