12
Generated by QM7 dataset
C 1.9664868116378784 -0.17695395648479462 0.2201719880104065
C 4.754210948944092 0.3314390778541565 -0.18417270481586456
C 6.021083354949951 2.2224314212799072 1.6047743558883667
C 7.550930023193359 -0.10867814719676971 2.4181313514709473
O 9.240609169006348 -0.5843977928161621 3.8771510124206543
O 6.29327917098999 -1.7027944326400757 0.846729576587677
H 1.3488487005233765 -1.7901942729949951 -0.9174242615699768
H 0.8406824469566345 1.4641786813735962 -0.3417002856731415
H 1.5455125570297241 -0.5945645570755005 2.203118324279785
H 5.216853618621826 0.6483461260795593 -2.1794400215148926
H 4.844274997711182 3.0116944313049316 3.104253053665161
H 7.148569583892822 3.6916933059692383 0.6966475248336792
