18
Generated by QM7 dataset
C 1.9965901374816895 -0.3196660876274109 -0.10408611595630646
C 4.864136219024658 -0.13432173430919647 0.05610596761107445
C 5.7945051193237305 2.608351230621338 0.02050352841615677
O 4.7775678634643555 3.937225580215454 2.131535530090332
C 8.687543869018555 2.7301251888275146 0.09707523137331009
C 9.673848152160645 5.431091785430908 -0.03450639918446541
H 1.4121923446655273 -2.303727388381958 -0.13812008500099182
H 1.2914955615997314 0.5862119197845459 -1.8248707056045532
H 1.0915625095367432 0.5795223116874695 1.5237807035446167
H 5.6960883140563965 -1.1791512966156006 -1.5273711681365967
H 5.4739885330200195 -1.0639346837997437 1.8057844638824463
H 5.107835292816162 3.549586057662964 -1.6914749145507812
H 5.377839088439941 3.112152099609375 3.6593034267425537
H 9.479187965393066 1.6460081338882446 -1.481488585472107
H 9.383662223815918 1.8733799457550049 1.8525930643081665
H 9.032683372497559 6.3679046630859375 -1.7628121376037598
H 11.741983413696289 5.433831691741943 -0.032333213835954666
H 9.03629207611084 6.544783115386963 1.5864062309265137
