13
Generated by QM7 dataset
C 1.889726161956787 0.0 0.0
C 4.618490695953369 0.0 0.0
C 6.86756706237793 0.0 0.0
C 9.606025695800781 0.002702308353036642 -0.035375673323869705
O 10.73105525970459 -1.7712403535842896 -1.0115326642990112
C 10.910371780395508 2.3738927841186523 0.9571273922920227
O 9.747698783874512 3.6021203994750977 3.0362985134124756
H 1.1452873945236206 1.9292025566101074 0.024320775642991066
H 1.1450984477996826 -0.9854543805122375 1.658612608909607
H 1.1449850797653198 -0.9434835910797119 -1.6827821731567383
H 11.077442169189453 3.728353977203369 -0.5994022488594055
H 12.820053100585938 1.8402341604232788 1.5509549379348755
H 8.135346412658691 4.273502349853516 2.460801362991333
