14
Generated by QM7 dataset
N 1.5658081769943237 1.452897071838379 0.6907705068588257
N 4.033072471618652 1.2372037172317505 1.326550006866455
C 5.531020641326904 2.215855121612549 -0.34604665637016296
C 8.356557846069336 2.144706964492798 0.01184858288615942
C 9.295524597167969 4.797957897186279 0.3583109676837921
C 10.916305541992188 5.949368000030518 -1.2076106071472168
H 0.5368334054946899 0.1905032843351364 1.7360913753509521
H 0.8847320079803467 3.177952527999878 1.2446491718292236
H 4.824357509613037 3.1130781173706055 -2.0964999198913574
H 9.189492225646973 1.2484097480773926 -1.6572520732879639
H 8.8330717086792 1.0102853775024414 1.675279974937439
H 8.61167049407959 5.8100762367248535 2.0133519172668457
H 11.670098304748535 5.011988162994385 -2.8697381019592285
H 11.539876937866211 7.869858741760254 -0.843781590461731
