17
Generated by QM7 dataset
C 1.8142504692077637 -0.023923933506011963 0.04881162568926811
C 4.679264068603516 -0.05714531987905502 0.06923956423997879
C 5.983893394470215 1.9457943439483643 1.7737914323806763
C 7.999739646911621 -0.0826188251376152 2.371851921081543
C 5.9455695152282715 -2.071782350540161 1.7860746383666992
N 7.020596981048584 -4.078350067138672 0.23472288250923157
H 1.075613260269165 -1.6663604974746704 -0.9699586033821106
H 1.1128219366073608 1.6782658100128174 -0.8961270451545715
H 1.0345494747161865 -0.057655543088912964 1.9661089181900024
H 5.419300079345703 0.006859705783426762 -1.873002052307129
H 4.877893447875977 2.523710250854492 3.427415132522583
H 6.67543888092041 3.6341512203216553 0.8058359026908875
H 9.61587142944336 -0.024075111374258995 1.071606993675232
H 8.711485862731934 -0.07547566294670105 4.311976909637451
H 4.8483381271362305 -2.6963558197021484 3.4242970943450928
H 8.081130027770996 -3.4740347862243652 -1.2555906772613525
H 5.698601245880127 -5.267498016357422 -0.5062576532363892
