18
Generated by QM7 dataset
C 2.0793979167938232 0.2738591134548187 0.44484153389930725
N 4.711691856384277 -0.16561560332775116 -0.2461557239294052
C 5.152697563171387 -2.804391384124756 -1.0445083379745483
C 5.245577335357666 -2.8072259426116943 -3.944330930709839
C 6.061202049255371 -0.18428608775138855 -4.6235175132751465
C 4.177900791168213 1.9304308891296387 -4.74971342086792
C 5.60522985458374 1.4562040567398071 -2.344148635864258
H 1.7777031660079956 2.2675013542175293 0.9140227437019348
H 1.592566728591919 -0.8223332166671753 2.132329225540161
H 0.7573644518852234 -0.24810214340686798 -1.060041904449463
H 3.775257110595703 -4.158758163452148 -0.30065542459487915
H 7.010298252105713 -3.3711390495300293 -0.31936371326446533
H 6.573147773742676 -4.228281021118164 -4.648046016693115
H 3.3727455139160156 -3.204049587249756 -4.735653877258301
H 7.85867166519165 -0.04826360568404198 -5.577432155609131
H 4.684820175170898 3.593559980392456 -5.835304260253906
H 2.1877169609069824 1.4710006713867188 -4.8547444343566895
H 7.059525489807129 2.8102872371673584 -1.8297840356826782
