18
Generated by QM7 dataset
C 2.959556818008423 0.17580121755599976 1.4987984895706177
O 5.312265872955322 0.41710034012794495 0.22054994106292725
C 6.34384822845459 2.913107395172119 0.5193912386894226
C 8.891860961914062 2.9760541915893555 -0.8552144765853882
O 8.498381614685059 2.452070951461792 -3.49550199508667
C 10.26612663269043 5.518680572509766 -0.5839820504188538
N 8.833921432495117 7.615199565887451 -1.699884295463562
H 2.2475457191467285 -1.7390016317367554 1.192171573638916
H 1.5829479694366455 1.5222499370574951 0.7460638880729675
H 3.209869861602783 0.4699748754501343 3.5300650596618652
H 6.593235492706299 3.326314926147461 2.5324220657348633
H 5.017393112182617 4.263713359832764 -0.31936371326446533
H 10.105367660522461 1.4593032598495483 -0.1348886489868164
H 7.327640056610107 1.0224930047988892 -3.514040231704712
H 12.085573196411133 5.401045322418213 -1.5662617683410645
H 10.638723373413086 5.9296393394470215 1.4086962938308716
H 8.326624870300293 7.05606746673584 -3.4842581748962402
H 10.010729789733887 9.120536804199219 -1.9414668083190918
