14
Generated by QM7 dataset
O 2.750345230102539 -0.5721712708473206 -0.229374960064888
N 5.281746864318848 0.19689056277275085 -0.15631814301013947
C 5.523688316345215 2.6445584297180176 -0.04361487925052643
C 3.3673975467681885 4.487098217010498 0.08811792731285095
C 3.5104119777679443 6.9863362312316895 -0.28561320900917053
C 8.110987663269043 3.7690210342407227 0.08722975850105286
C 10.093839645385742 2.601888418197632 -0.9658390283584595
H 2.907022476196289 -2.4065096378326416 -0.3088757395744324
H 1.5331536531448364 3.6496658325195312 0.46683794260025024
H 5.249734878540039 7.962474346160889 -0.7478591203689575
H 1.8110946416854858 8.13332462310791 -0.17527209222316742
H 8.35120964050293 5.537388801574707 1.087896466255188
H 9.890542984008789 0.8165695667266846 -1.9590034484863281
H 11.972643852233887 3.4112391471862793 -0.8466539978981018
