9
Generated by QM7 dataset
O 5.141756057739258 -1.8859466314315796 -0.30322545766830444
C 4.035358905792236 0.12925726175308228 0.022487740963697433
S 5.682633399963379 2.9946489334106445 0.14892931282520294
O 5.30011510848999 4.410488605499268 -2.15341854095459
O 5.587221145629883 4.02532434463501 2.6760034561157227
C 8.977163314819336 2.3693008422851562 -0.094429612159729
C 11.205339431762695 1.9554129838943481 -0.25749409198760986
H 1.973346471786499 0.24895252287387848 0.2513713836669922
H 13.17989444732666 1.5938706398010254 -0.40205812454223633
