14
Generated by QM7 dataset
C 2.0129551887512207 0.12014878541231155 -0.0005291232955642045
C 4.812905788421631 -0.06604592502117157 -0.09989092499017715
C 6.217936038970947 -2.1520578861236572 -0.1527276635169983
C 8.915879249572754 -1.4224724769592285 -0.15815117955207825
C 8.720141410827637 1.412664771080017 -0.6282772421836853
O 6.16453218460083 2.1892476081848145 -0.08694630116224289
H 1.1228752136230469 -1.74720299243927 -0.05121157690882683
H 1.3081251382827759 1.2077428102493286 -1.6128623485565186
H 1.4166898727416992 1.0684700012207031 1.7384535074234009
H 5.518056869506836 -4.067805767059326 -0.12451405823230743
H 9.782752990722656 -1.8314470052719116 1.674902081489563
H 10.007649421691895 -2.3626301288604736 -1.638619303703308
H 9.125165939331055 1.8734744787216187 -2.608445644378662
H 10.026886940002441 2.4843852519989014 0.5654438734054565
