13
Generated by QM7 dataset
N 1.7851675748825073 -0.07014663517475128 0.05221313238143921
C 3.9775712490081787 -0.03341035917401314 0.03669848293066025
C 6.708641052246094 0.012453295290470123 0.01627054251730442
C 7.967387676239014 1.9897871017456055 1.7748874425888062
C 10.022597312927246 -0.004837698768824339 2.318429470062256
C 8.033867835998535 -2.0283942222595215 1.6490505933761597
H 7.478817939758301 0.08556679636240005 -1.9124972820281982
H 6.8587422370910645 2.50766658782959 3.447918653488159
H 8.631608009338379 3.7163164615631104 0.8543074131011963
H 11.620644569396973 0.06281449645757675 1.0024996995925903
H 10.741203308105469 -0.05355484038591385 4.253546714782715
H 8.75383472442627 -3.671076536178589 0.6229671239852905
H 6.944667816162109 -2.6862645149230957 3.2852699756622314
