19
Generated by QM7 dataset
C 1.7173453569412231 -0.041706256568431854 0.10595694184303284
C 4.572532653808594 -0.04792345315217972 0.047167565673589706
N 5.578754901885986 -0.004535342566668987 -2.5659079551696777
C 6.001090049743652 1.9802250862121582 1.6186449527740479
C 7.969522953033447 -0.06222868338227272 2.3387818336486816
C 5.955320835113525 -2.0776593685150146 1.697465419769287
N 7.094485282897949 -4.043239116668701 0.11946848779916763
H 1.0089248418807983 -0.048773832619190216 2.0511088371276855
H 0.9457890391349792 -1.7118462324142456 -0.8432713747024536
H 0.9489070773124695 1.638808250427246 -0.8276622295379639
H 7.460374355316162 0.41350987553596497 -2.6676130294799805
H 4.719156265258789 1.3121880292892456 -3.6833786964416504
H 4.929577350616455 2.670787811279297 3.255185604095459
H 6.743941307067871 3.6231529712677 0.6048257350921631
H 9.656519889831543 -0.0370764285326004 1.1342135667800903
H 8.5824556350708 -0.023092452436685562 4.312638282775879
H 4.909886360168457 -2.7648961544036865 3.346062421798706
H 7.222287654876709 -3.4219350814819336 -1.714491844177246
H 5.958098411560059 -5.594080448150635 -0.03412845358252525
