16
Generated by QM7 dataset
C 1.89482843875885 -0.11765434592962265 -0.14384596049785614
O 4.577238082885742 -0.007124267518520355 -0.20015978813171387
C 5.468886375427246 2.5294928550720215 0.0
C 8.197650909423828 2.5294928550720215 0.0
C 10.446727752685547 2.5294928550720215 0.0
C 13.175492286682129 2.5294928550720215 0.0
N 14.117974281311035 5.10023832321167 -0.2629553973674774
H 1.3222414255142212 -2.0960841178894043 -0.305512011051178
H 1.0933955907821655 0.9330334067344666 -1.7343717813491821
H 1.175693154335022 0.632793664932251 1.6414538621902466
H 4.753889560699463 3.372197389602661 1.7514548301696777
H 4.748976230621338 3.6328284740448 -1.5975934267044067
H 13.899918556213379 1.3722246885299683 -1.5553579330444336
H 13.900371551513672 1.7205767631530762 1.76046884059906
H 13.462786674499512 5.830787658691406 -1.9184499979019165
H 16.034666061401367 5.05029296875 -0.41443583369255066
