16
Generated by QM7 dataset
C 5.156552314758301 -0.9469795823097229 2.6286089420318604
C 4.708384990692139 0.18991747498512268 0.035791411995887756
C 5.704289436340332 2.837461471557617 -0.07834804803133011
N 7.899905681610107 3.393305540084839 -0.9969249963760376
O 8.201505661010742 6.039281368255615 -0.704716682434082
C 5.749340534210205 7.084847927093506 -0.24685493111610413
C 4.2916059494018555 4.996813774108887 1.0174285173416138
H 4.464062213897705 -2.8943045139312744 2.6911401748657227
H 4.1780900955200195 0.1332256942987442 4.097153186798096
H 7.172342300415039 -0.9589415192604065 3.095806121826172
H 2.6859054565429688 0.21695946156978607 -0.39833536744117737
H 5.654948711395264 -0.9500976204872131 -1.4093388319015503
H 4.916330337524414 7.620093822479248 -2.0650172233581543
H 5.911214351654053 8.767894744873047 0.9417639374732971
H 2.2880616188049316 4.990917682647705 0.5329405665397644
H 4.543203830718994 4.996473789215088 3.0683484077453613
