12
Generated by QM7 dataset
C 5.823020935058594 -2.2097134590148926 1.0068272352218628
O 4.45087194442749 0.02793015167117119 0.46011051535606384
C 5.908474445343018 2.1081595420837402 0.2192649245262146
N 4.683213710784912 4.248558044433594 -0.29474058747291565
O 6.548505783081055 6.084615707397461 -0.45077526569366455
C 8.835320472717285 5.003446578979492 -0.028232509270310402
C 8.536384582519531 2.467698812484741 0.4097115099430084
H 4.469315528869629 -3.765411615371704 1.1612178087234497
H 6.817281723022461 -2.0560030937194824 2.8163533210754395
H 7.143561840057373 -2.6709766387939453 -0.5195990800857544
H 10.43451976776123 6.269034385681152 -0.10516326129436493
H 10.005891799926758 1.1124628782272339 0.8028879165649414
