17
Generated by QM7 dataset
C 6.542515277862549 -3.958390474319458 1.5350056886672974
C 5.556796550750732 -1.5255948305130005 0.43284177780151367
C 3.108335018157959 -1.4061641693115234 -0.23570553958415985
N 7.16671085357666 0.49968138337135315 0.018576007336378098
C 9.672392845153809 0.9659335017204285 0.5436364412307739
C 10.819929122924805 3.2353434562683105 -0.7748255133628845
N 11.143620491027832 -0.25341227650642395 2.0540757179260254
H 8.232308387756348 -4.59382963180542 0.5213565230369568
H 5.1564202308654785 -5.492262363433838 1.4000225067138672
H 6.983955383300781 -3.7246880531311035 3.542839765548706
H 1.8384578227996826 -2.9952914714813232 0.0421597883105278
H 2.285264730453491 0.27631574869155884 -1.0709644556045532
H 6.320642471313477 1.8947149515151978 -0.9975864291191101
H 9.912483215332031 4.958244323730469 -0.07866930216550827
H 10.506707191467285 3.0826914310455322 -2.812384843826294
H 12.85185718536377 3.3492751121520996 -0.41385000944137573
H 10.174398422241211 -1.6746375560760498 2.912710428237915
