8
Generated by QM7 dataset
N 1.942525029182434 0.027514412999153137 0.0
C 4.508073806762695 -0.10831910371780396 -0.0
O 5.662394046783447 -2.1075170040130615 0.0
C 5.830693244934082 2.2736051082611084 -0.0
C 6.933254241943359 4.25985860824585 -0.0
H 1.0137624740600586 1.6929301023483276 -0.0
H 0.9583746194839478 -1.6074388027191162 0.0
H 7.931615352630615 6.006967067718506 -0.0
