19
Generated by QM7 dataset
C 1.8491348028182983 -0.15227413177490234 0.00308025348931551
N 4.581867694854736 0.14951513707637787 -0.06249324232339859
C 5.519833564758301 2.7724549770355225 -0.055954791605472565
C 4.73769474029541 4.202108383178711 -2.46303129196167
C 4.641110897064209 4.237049579620361 2.2940142154693604
C 8.424436569213867 2.595482110977173 0.008031335659325123
H 1.3983027935028076 -2.172372579574585 -0.011584021151065826
H 0.9255878329277039 0.6907327175140381 -1.6425122022628784
H 1.021529197692871 0.6244977712631226 1.7302711009979248
H 5.272505760192871 -0.7716318964958191 -1.608497142791748
H 5.29249906539917 3.166614055633545 -4.16934061050415
H 5.644460678100586 6.063205242156982 -2.5449318885803223
H 2.693596839904785 4.517522811889648 -2.5460281372070312
H 5.096081256866455 3.209699869155884 4.034697532653809
H 2.600867986679077 4.5871968269348145 2.272716999053955
H 5.570837020874023 6.08573055267334 2.4046199321746826
H 9.084102630615234 1.5912816524505615 1.697597622871399
H 9.289459228515625 4.478631973266602 0.028270302340388298
H 9.163395881652832 1.5936437845230103 -1.6497876644134521
