16
Generated by QM7 dataset
C 2.157273530960083 0.20208731293678284 0.24528644979000092
C 4.976423740386963 -0.18114914000034332 -0.23462839424610138
N 5.364838123321533 -1.3905738592147827 -2.688286542892456
C 6.355923652648926 2.309736728668213 -0.22808994352817535
C 7.050473690032959 3.5838088989257812 2.2278170585632324
N 8.983172416687012 2.4220242500305176 0.6505948901176453
H 1.8422751426696777 1.0800729990005493 2.095139265060425
H 1.144096851348877 -1.6034326553344727 0.22140032052993774
H 1.3019646406173706 1.4410673379898071 -1.1786600351333618
H 5.739967346191406 -1.4244567155838013 1.2371091842651367
H 4.4596967697143555 -0.40028178691864014 -4.063459396362305
H 4.565408229827881 -3.139080762863159 -2.6661200523376465
H 5.867278575897217 3.51298189163208 -1.813400149345398
H 6.648018836975098 2.6245460510253906 3.990156650543213
H 7.040968418121338 5.6280012130737305 2.312079906463623
H 9.964960098266602 3.726010799407959 -0.37735942006111145
