15
Generated by QM7 dataset
C 1.8768949508666992 0.03889056295156479 0.10601363331079483
C 4.6833271980285645 -0.0463738776743412 0.09562014043331146
C 6.154327869415283 -2.0794358253479004 -0.15633703768253326
C 8.845146179199219 -1.2952183485031128 -0.059923216700553894
O 8.834242820739746 1.41090726852417 0.2709111273288727
C 6.307074546813965 2.116360902786255 0.3641313314437866
C 5.634350776672363 4.526744365692139 0.6698512434959412
H 1.0647095441818237 -1.851855993270874 -0.11733309924602509
H 1.1735577583312988 1.2109553813934326 -1.447246789932251
H 1.1730475425720215 0.8164750933647156 1.8895372152328491
H 5.5189642906188965 -4.001589775085449 -0.39431026577949524
H 9.834493637084961 -2.1582751274108887 1.5376890897750854
H 9.835382461547852 -1.7483935356140137 -1.817784309387207
H 7.069295406341553 5.979320049285889 0.8503011465072632
H 3.674591302871704 5.111897945404053 0.7491063475608826
