14
Generated by QM7 dataset
C 5.338740825653076 -2.3955490589141846 0.8137160539627075
N 4.459092140197754 0.02605932392179966 -0.10784666985273361
C 5.9167890548706055 2.1419100761413574 -0.013341466896235943
C 5.025405406951904 4.576595306396484 -0.333857923746109
C 6.953209400177002 6.449049472808838 -0.15448510646820068
C 9.283960342407227 5.390594959259033 0.28948715329170227
S 9.128908157348633 2.173525094985962 0.48008492588996887
H 3.8598034381866455 -3.8144311904907227 0.5306162238121033
H 5.757409572601318 -2.315538167953491 2.838595390319824
H 7.014077663421631 -3.0403614044189453 -0.2150697261095047
H 2.5506389141082764 0.23725511133670807 -0.07564573734998703
H 3.0566697120666504 5.0031256675720215 -0.6884838938713074
H 6.643237590789795 8.462533950805664 -0.34888124465942383
H 11.076138496398926 6.34757137298584 0.504122257232666
