15
Generated by QM7 dataset
C 3.166349411010742 -0.22895921766757965 0.02352708950638771
C 1.3531006574630737 -2.2902536392211914 0.9231312274932861
O -0.6734039187431335 -2.449500799179077 -0.8460304141044617
N -2.832775115966797 -1.1410166025161743 -0.0236026793718338
C -2.5305511951446533 1.259540319442749 0.4378306567668915
C -0.18438057601451874 2.906663417816162 0.4851682782173157
N 1.930147409439087 2.011122226715088 -1.040596604347229
H 4.360335350036621 -1.0142349004745483 -1.4765374660491943
H 4.431332111358643 0.3037545680999756 1.5748977661132812
H 2.321906566619873 -4.118563652038574 0.9597163200378418
H 0.6540530920028687 -1.924856185913086 2.8414299488067627
H -4.265225410461426 2.2459018230438232 1.0474374294281006
H 0.36991387605667114 3.209057331085205 2.459327459335327
H -0.7719153165817261 4.75439977645874 -0.2487824410200119
H 3.2338695526123047 3.410804510116577 -1.2549293041229248
