18
Generated by QM7 dataset
C 7.438831329345703 -1.8081088066101074 -1.917712926864624
C 5.450178146362305 -0.4436888098716736 -0.34368449449539185
O 5.196331024169922 -1.7150588035583496 2.014939308166504
C 5.926030158996582 2.292294502258301 0.24165818095207214
C 8.02251148223877 3.6392533779144287 -0.25163593888282776
C 8.332539558410645 6.37192964553833 0.3855608105659485
N 10.265748023986816 6.631899356842041 2.319223165512085
H 7.687840461730957 -0.9145329594612122 -3.7662808895111084
H 6.876807689666748 -3.778318405151367 -2.2177069187164307
H 9.267349243164062 -1.8674651384353638 -0.947414219379425
H 3.629937171936035 -0.5899724960327148 -1.3194634914398193
H 6.7777485847473145 -1.4652180671691895 2.919475793838501
H 4.353607654571533 3.2284460067749023 1.1841402053833008
H 9.63679027557373 2.7637054920196533 -1.1730663776397705
H 6.5605621337890625 7.2138214111328125 1.0456799268722534
H 8.91189193725586 7.400847911834717 -1.3139833211898804
H 9.629194259643555 5.801875114440918 3.9370365142822266
H 10.480345726013184 8.497776985168457 2.7399139404296875
