17
Generated by QM7 dataset
C 1.5404102802276611 1.0655598640441895 -0.6383872628211975
N 4.2265424728393555 0.6395778059959412 -0.8123932480812073
C 5.9898271560668945 2.4788105487823486 -0.4428195357322693
N 5.718594551086426 4.876513957977295 -0.650972843170166
C 8.533833503723145 1.5374433994293213 0.24849899113178253
C 9.924595832824707 2.6532700061798096 2.478980541229248
C 8.907413482666016 0.01551465131342411 2.639078140258789
H 0.5263832211494446 -0.6828147172927856 -1.0748573541641235
H 0.9197486042976379 2.507780075073242 -1.9857620000839233
H 1.0204709768295288 1.6559103727340698 1.2732218503952026
H 4.770745754241943 -1.1231586933135986 -0.2877108156681061
H 3.9123566150665283 5.274357795715332 -1.190848708152771
H 9.690969467163086 1.0393115282058716 -1.3714120388031006
H 8.987140655517578 4.128201007843018 3.5491135120391846
H 11.947850227355957 2.9117844104766846 2.2986817359924316
H 10.247757911682129 -1.5319442749023438 2.587639808654785
H 7.303999423980713 -0.2943248450756073 3.8746378421783447
