15
Generated by QM7 dataset
C 1.7808212041854858 -2.170822858810425 1.6779255867004395
C 2.229139804840088 -0.6644276976585388 -0.6765408515930176
C 1.8044049739837646 2.1275293827056885 -0.8167774081230164
C -0.4783841669559479 2.947481393814087 0.7451379299163818
N -2.7046327590942383 1.3568989038467407 0.2807944118976593
C -2.2517032623291016 -0.9783490300178528 -0.23460949957370758
N -0.004327472764998674 -2.299891233444214 -0.4510209262371063
H 2.8212666511535645 -3.911468505859375 1.934191346168518
H 1.0318282842636108 -1.3133407831192017 3.3730099201202393
H 3.5987377166748047 -1.3472613096237183 -2.0326271057128906
H 3.496673583984375 3.1354901790618896 -0.1814137101173401
H 1.4942820072174072 2.640873432159424 -2.80104660987854
H -0.03945748135447502 2.9212899208068848 2.7694880962371826
H -0.9521384835243225 4.905691146850586 0.26783087849617004
H -3.8677968978881836 -2.2282893657684326 -0.6467020511627197
