16
Generated by QM7 dataset
C 1.889726161956787 0.0 0.0
C 4.618490695953369 0.0 0.0
C 6.86756706237793 0.0 0.0
C 9.596331596374512 0.0 0.0
O 10.50366497039795 -1.2121648788452148 -2.2368876934051514
C 10.675667762756348 2.713287591934204 0.08785336464643478
N 13.448500633239746 2.7012312412261963 -0.2075108289718628
H 1.1452118158340454 1.9291836023330688 0.022053103893995285
H 1.1450417041778564 -0.9836402535438538 1.6596519947052002
H 1.1450984477996826 -0.9454110860824585 -1.6817617416381836
H 10.317375183105469 -1.0809422731399536 1.612635612487793
H 12.170611381530762 -0.4606018364429474 -2.512957811355591
H 10.157693862915039 3.6535398960113525 1.8584133386611938
H 9.893377304077148 3.82977557182312 -1.4731926918029785
H 14.247590065002441 1.9002330303192139 1.3558406829833984
H 14.07031536102295 4.527727127075195 -0.22969621419906616
