17
Generated by QM7 dataset
C 7.693490982055664 -0.7882614731788635 3.988229274749756
O 9.228269577026367 -0.15953068435192108 1.8766870498657227
C 8.8185396194458 2.374818801879883 1.0612702369689941
O 9.703176498413086 4.212010383605957 2.8276350498199463
C 12.308731079101562 3.967499017715454 3.4378652572631836
C 9.968192100524902 2.8356285095214844 -1.5048456192016602
C 11.334955215454102 1.201412320137024 -2.8784496784210205
H 8.002650260925293 -2.7799761295318604 4.4403462409973145
H 5.690381050109863 -0.5204494595527649 3.5524394512176514
H 8.220856666564941 0.3417380750179291 5.637128829956055
H 6.778126239776611 2.6790268421173096 0.8475610613822937
H 12.753289222717285 5.367332458496094 4.891650676727295
H 13.501960754394531 4.356688022613525 1.7964681386947632
H 12.732068061828613 2.094818115234375 4.202977657318115
H 9.619235038757324 4.708536148071289 -2.2741153240203857
H 11.743117332458496 -0.6894665956497192 -2.192857027053833
H 12.08126449584961 1.7312915325164795 -4.712769031524658
