19
Generated by QM7 dataset
C 5.944454669952393 -2.1071014404296875 0.5034230351448059
O 7.650084018707275 -0.032862339168787 0.5830938816070557
C 6.505438804626465 2.226588726043701 -0.3534543812274933
C 8.46247673034668 4.339113712310791 -0.22372467815876007
C 7.396425724029541 6.86021614074707 -1.13655686378479
C 9.332639694213867 8.975727081298828 -0.9018906950950623
O 6.635470867156982 6.658827781677246 -3.7125370502471924
H 6.9220099449157715 -3.780491590499878 1.2193646430969238
H 5.341462135314941 -2.475900173187256 -1.4400469064712524
H 4.300808906555176 -1.7376031875610352 1.7023786306381226
H 4.859941005706787 2.6983587741851807 0.8128467798233032
H 5.887460708618164 1.9219081401824951 -2.3062028884887695
H 10.096731185913086 3.7883718013763428 -1.3756638765335083
H 9.155760765075684 4.512439250946045 1.7224664688110352
H 5.7161760330200195 7.35587215423584 -0.0337316133081913
H 11.016858100891113 8.573612213134766 -2.0371437072753906
H 9.91080093383789 9.250227928161621 1.0643315315246582
H 8.547041893005371 10.753694534301758 -1.613996148109436
H 8.13956069946289 6.3380279541015625 -4.721839904785156
