19
Generated by QM7 dataset
C 4.717587947845459 -2.4572298526763916 -1.3994367122650146
C 3.739295482635498 -0.04100705683231354 -0.18653486669063568
C 5.845168590545654 1.745880126953125 0.5878182053565979
C 7.389906406402588 0.8810281157493591 2.824856996536255
C 7.164707660675049 3.2546753883361816 -1.454257607460022
C 5.337796211242676 4.55076265335083 0.2825896441936493
O 6.449975490570068 6.202326774597168 2.1199891567230225
H 3.134488821029663 -3.63704252243042 -2.0170180797576904
H 5.850800037384033 -3.5664989948272705 -0.0725276917219162
H 5.894433975219727 -2.042548179626465 -3.0495834350585938
H 2.596653699874878 -0.5141000151634216 1.4755548238754272
H 2.4633336067199707 0.8886815309524536 -1.5302435159683228
H 8.901857376098633 2.2120189666748047 3.3007090091705322
H 8.289793968200684 -0.9395718574523926 2.437255382537842
H 6.181464195251465 0.6691709160804749 4.490650653839111
H 6.595030784606934 2.978208303451538 -3.402357339859009
H 9.162431716918945 3.652613878250122 -1.2328006029129028
H 3.528761148452759 5.11849308013916 -0.5028561353683472
H 6.816922664642334 7.8485426902771 1.389024257659912
