14
Generated by QM7 dataset
N 1.8999305963516235 0.04486209899187088 0.18239636719226837
C 4.667623519897461 0.0 0.0
C 5.4948320388793945 -1.4454326629638672 -2.393035888671875
C 8.227810859680176 -2.0068514347076416 -2.4011616706848145
C 10.450601577758789 -2.4669430255889893 -2.418433666229248
C 5.578509330749512 2.5722384452819824 0.0
C 6.329259872436523 4.692322254180908 0.0
H 1.4074113368988037 1.0267070531845093 1.7648719549179077
H 1.2547593116760254 -1.7489982843399048 0.4401738941669464
H 5.393032550811768 -0.9844150543212891 1.674902081489563
H 5.0015950202941895 -0.37732163071632385 -4.101612567901611
H 4.4744367599487305 -3.249138355255127 -2.5014872550964355
H 12.424363136291504 -2.8667523860931396 -2.4401087760925293
H 6.995954990386963 6.5919694900512695 -0.01171630248427391
