15
Generated by QM7 dataset
C 2.755655288696289 -1.2603150606155396 1.664678692817688
C 4.197554111480713 -0.30141133069992065 -0.18192394077777863
C 5.96399450302124 1.9030297994613647 0.12959742546081543
C 8.68531322479248 1.098497748374939 0.06844588369131088
C 10.141858100891113 0.8516050577163696 2.132234573364258
C 9.860024452209473 0.6124224662780762 -2.4351577758789062
O 8.717835426330566 0.8784769773483276 -4.432106971740723
H 1.513481616973877 -2.851672410964966 1.2998480796813965
H 2.786609172821045 -0.4967901110649109 3.567387104034424
H 4.099496364593506 -1.1314923763275146 -2.0638833045959473
H 5.560311317443848 2.8874826431274414 1.9110233783721924
H 5.588732719421387 3.293112277984619 -1.3616232872009277
H 9.373117446899414 1.2005808353424072 4.003857135772705
H 12.111254692077637 0.2860667407512665 2.037370443344116
H 11.85120964050293 -0.0029668700881302357 -2.4015583992004395
