15
Generated by QM7 dataset
C 1.718630313873291 0.22448056936264038 0.632340133190155
C 4.545414924621582 0.048282504081726074 0.044162899255752563
C 4.932827949523926 -1.3460519313812256 -2.463787078857422
C 5.720938205718994 2.707637310028076 0.0
C 8.446490287780762 2.6423285007476807 -0.11483865976333618
N 10.619032859802246 2.590266466140747 -0.20639589428901672
H 1.4039720296859741 1.137634038925171 2.4621620178222656
H 0.8659102916717529 -1.6594818830490112 0.715110182762146
H 0.7178124785423279 1.3182729482650757 -0.8115995526313782
H 5.440502643585205 -1.0687912702560425 1.5468353033065796
H 4.099231719970703 -0.296951562166214 -4.040895938873291
H 4.048435688018799 -3.216257095336914 -2.4039394855499268
H 6.941871166229248 -1.6236716508865356 -2.867659330368042
H 5.152187347412109 3.733531951904297 1.7094841003417969
H 4.96773099899292 3.78389310836792 -1.6031869649887085
