19
Generated by QM7 dataset
C 1.9014424085617065 0.030065542086958885 0.25760746002197266
N 4.639353275299072 0.07630714029073715 -0.059337399899959564
C 5.804917335510254 1.9295804500579834 1.6899442672729492
C 7.8518500328063965 -0.07375600934028625 2.2959794998168945
C 10.268204689025879 -0.011584021151065826 0.7302657961845398
N 11.95561695098877 1.9908453226089478 1.6214417219161987
C 5.838554382324219 -1.996382236480713 1.3962053060531616
H 1.099839448928833 -1.5703434944152832 -0.7822521328926086
H 1.0730432271957397 1.7537413835525513 -0.5340933203697205
H 1.292100191116333 -0.12239756435155869 2.2324657440185547
H 4.665979385375977 2.458836078643799 3.3416028022766113
H 6.47117805480957 3.66170334815979 0.7781703472137451
H 8.274316787719727 -0.25004854798316956 4.320178508758545
H 9.872685432434082 0.2673773467540741 -1.2832374572753906
H 11.255228042602539 -1.8211857080459595 0.9202588200569153
H 11.171229362487793 3.703598737716675 1.2172482013702393
H 13.593083381652832 1.921265721321106 0.6055627465248108
H 6.536808490753174 -3.5627763271331787 0.23967397212982178
H 4.708422660827637 -2.785494089126587 2.947443723678589
