20
Generated by QM7 dataset
C 2.5273196697235107 -1.486420750617981 2.8894667625427246
C 4.657116889953613 -1.33677339553833 0.9635713696479797
C 5.607289791107178 1.3743033409118652 0.6515775918960571
N 7.579502582550049 1.4576969146728516 -1.2851837873458862
C 8.637636184692383 3.9959959983825684 -1.604320764541626
C 11.140464782714844 4.600765228271484 -0.40944695472717285
C 10.949848175048828 4.3063645362854 -3.2236838340759277
H 1.8854931592941284 -3.440964460372925 3.095560312271118
H 0.9118495583534241 -0.3407743275165558 2.2940707206726074
H 3.1531970500946045 -0.8154546022415161 4.742588996887207
H 3.9718642234802246 -2.0701382160186768 -0.8509247899055481
H 6.211246490478516 -2.565964698791504 1.5732725858688354
H 6.356849670410156 2.055398464202881 2.4580235481262207
H 4.033185958862305 2.6066694259643555 0.10841359198093414
H 6.861538887023926 0.8133003115653992 -2.9534151554107666
H 7.262236595153809 5.522252082824707 -1.7214648723602295
H 12.097497940063477 3.125777006149292 0.6411274075508118
H 11.41145133972168 6.483423709869385 0.3465568721294403
H 11.089139938354492 5.991887092590332 -4.377172470092773
H 11.786467552185059 2.638378858566284 -4.0668416023254395
