17
Generated by QM7 dataset
C 2.4814748764038086 0.017650041729211807 2.082270383834839
C 5.214075565338135 0.015004425309598446 1.1808710098266602
C 6.108785629272461 2.5893595218658447 0.19018204510211945
N 6.054965972900391 4.578976631164551 2.1464264392852783
C 8.819389343261719 2.408947229385376 -0.862319827079773
O 9.64690113067627 4.860772609710693 -1.621139407157898
H 1.8958866596221924 -1.9049195051193237 2.574336051940918
H 1.2119191884994507 0.7144109606742859 0.6050714254379272
H 2.237870454788208 1.1941746473312378 3.7652416229248047
H 5.397435665130615 -1.388022780418396 -0.33346107602119446
H 6.435084342956543 -0.6225135922431946 2.7305409908294678
H 4.863626003265381 3.2213594913482666 -1.3421969413757324
H 6.988037109375 3.9560470581054688 3.7164676189422607
H 4.230548858642578 4.868217945098877 2.7089412212371826
H 8.899249076843262 1.158080816268921 -2.5052666664123535
H 10.13879680633545 1.7038148641586304 0.5678060054779053
H 8.850286483764648 6.005587577819824 -0.40009281039237976
