13
Generated by QM7 dataset
C 1.842161774635315 0.06364597380161285 -0.014985527843236923
N 4.552104473114014 0.02142949402332306 0.0025511302519589663
C 6.137679100036621 2.0837631225585938 0.005782561842352152
C 8.532170295715332 1.261070966720581 0.016931945458054543
N 8.518583297729492 -1.3304049968719482 0.01940748654305935
C 6.011067867279053 -2.2073891162872314 0.009032891131937504
O 5.3100361824035645 -4.397487163543701 0.005555795039981604
H 1.1375584602355957 2.006284475326538 0.013549336232244968
H 1.1455708742141724 -0.9608879685401917 1.639507532119751
H 1.1693813800811768 -0.9037615060806274 -1.7131123542785645
H 5.441201686859131 3.9998698234558105 3.779452163144015e-05
H 10.265029907226562 2.334718942642212 0.02260112389922142
H 10.027416229248047 -2.4936258792877197 0.025586891919374466
