17
Generated by QM7 dataset
C 1.8664636611938477 -0.09732089936733246 0.4266056716442108
C 4.495412826538086 0.24651476740837097 -0.5472646951675415
C 5.977959632873535 2.2698445320129395 -0.16130702197551727
C 5.306634426116943 4.674785614013672 1.1416213512420654
C 6.835536479949951 6.526093482971191 -0.413377583026886
O 9.14689826965332 5.251643180847168 -1.0229843854904175
C 8.57516098022461 2.6024551391601562 -1.2382431030273438
H 1.6626566648483276 -1.9950783252716064 1.2249583005905151
H 0.5079394578933716 0.10280109941959381 -1.1195493936538696
H 1.3813331127166748 1.254626989364624 1.9119492769241333
H 5.232689380645752 -1.3222602605819702 -1.6574032306671143
H 6.000541687011719 4.617696762084961 3.090949535369873
H 3.2974021434783936 5.145421981811523 1.135574221611023
H 5.874610424041748 7.020256996154785 -2.182255744934082
H 7.255698204040527 8.26738166809082 0.616825520992279
H 8.675297737121582 2.0628628730773926 -3.2322254180908203
H 9.99149227142334 1.5572855472564697 -0.15335127711296082
