16
Generated by QM7 dataset
C 1.5790174007415771 -0.32671475410461426 -0.19879919290542603
C 4.451136589050293 -0.11699294298887253 0.019766535609960556
C 5.741573810577393 -1.5608192682266235 -2.1228995323181152
C 5.245123863220215 2.6214091777801514 -0.018935056403279305
C 6.46571683883667 3.7625770568847656 1.8903875350952148
C 7.186042785644531 6.348043441772461 1.7905155420303345
N 7.778018474578857 8.458773612976074 1.7174209356307983
H 0.6427147388458252 0.671495258808136 1.3550469875335693
H 0.9831300377845764 -2.3076391220092773 -0.12419280409812927
H 0.8893429040908813 0.4771747589111328 -1.9785432815551758
H 5.021493434906006 -0.9891771674156189 1.813041090965271
H 5.213716506958008 -0.8049477338790894 -3.9774765968322754
H 5.211902618408203 -3.561377763748169 -2.078868865966797
H 7.802433490753174 -1.4511585235595703 -1.9545248746871948
H 4.779778957366943 3.6952271461486816 -1.7148886919021606
H 6.949883460998535 2.7362477779388428 3.596658945083618
