12
Generated by QM7 dataset
C 1.889726161956787 0.0 0.0
C 4.138802528381348 0.0 0.0
C 6.86756706237793 0.0 0.0
C 7.5827717781066895 2.727536201477051 0.12579907476902008
C 7.985661506652832 4.058678150177002 2.6123006343841553
O 10.068554878234863 3.1767618656158447 1.1171115636825562
H -0.12451405823230743 -0.0033826096914708614 -0.0006236096378415823
H 7.621700286865234 -0.846899688243866 -1.7297797203063965
H 7.61710786819458 -1.0637835264205933 1.6093286275863647
H 7.023355960845947 3.8128247261047363 -1.515957236289978
H 7.5729827880859375 3.059183120727539 4.349015712738037
H 7.666165351867676 6.077680587768555 2.6898739337921143
