16
Generated by QM7 dataset
O 2.2678980827331543 0.43287956714630127 0.6303370594978333
C 4.871260643005371 0.006632938515394926 0.10563568770885468
C 5.2763800621032715 -2.740405321121216 -0.7361994981765747
C 4.769876480102539 -2.7256085872650146 -3.5968103408813477
C 5.573520660400391 -0.13617366552352905 -4.4347147941589355
N 3.8461029529571533 1.997175931930542 -4.207569599151611
C 5.649638652801514 1.5415440797805786 -2.160334825515747
H 1.5250468254089355 0.9296696782112122 -0.9903865456581116
H 5.974539279937744 0.45737043023109436 1.7942571640014648
H 4.055919170379639 -4.087987899780273 0.24772420525550842
H 7.25441312789917 -3.2705490589141846 -0.4141145944595337
H 5.850516319274902 -4.211141109466553 -4.5467000007629395
H 2.759340286254883 -3.0316877365112305 -3.9899487495422363
H 7.074095249176025 -0.06502547860145569 -5.8156890869140625
H 4.427987575531006 3.4726362228393555 -5.310943126678467
H 7.201500415802002 2.833247423171997 -1.8812979459762573
