19
Generated by QM7 dataset
C 1.7552531957626343 -0.4122815430164337 0.21359574794769287
C 4.639202117919922 -0.08241095393896103 -0.03662289306521416
C 5.900008678436279 -1.2925159931182861 2.291538715362549
C 5.489919185638428 -1.4724935293197632 -2.4716296195983887
O 8.167736053466797 -1.5099101066589355 -2.769601583480835
C 5.465503692626953 2.6839969158172607 -0.14520655572414398
C 3.9922354221343994 4.743269443511963 -0.22221289575099945
H 0.7552101612091064 0.3653407394886017 -1.4262140989303589
H 1.0251197814941406 0.5221502184867859 1.9131776094436646
H 1.245518445968628 -2.4163548946380615 0.34857887029647827
H 5.266062259674072 -0.3843514025211334 4.044070720672607
H 7.965478897094727 -1.1336089372634888 2.2252092361450195
H 5.435211181640625 -3.307001829147339 2.4280900955200195
H 4.66435432434082 -0.6061674356460571 -4.164691925048828
H 4.866724967956543 -3.4461991786956787 -2.4258792400360107
H 8.678056716918945 0.190673366189003 -3.244621992111206
H 7.5010600090026855 2.9973134994506836 -0.12209520488977432
H 1.945302963256836 4.650124549865723 -0.22621911764144897
H 4.830328941345215 6.617537498474121 -0.2706465721130371
