19
Generated by QM7 dataset
C 1.315929651260376 1.0838901996612549 -1.907111644744873
C 3.8057005405426025 1.2305707931518555 -0.5823947191238403
C 5.810397624969482 2.4999566078186035 -1.4861940145492554
C 8.325339317321777 2.694352626800537 -0.16731634736061096
N 10.248627662658691 1.4532749652862549 -1.7436691522598267
C 9.043265342712402 5.498781681060791 0.34623563289642334
N 9.911368370056152 6.861519813537598 -1.9262545108795166
H 0.807574450969696 -0.8944829702377319 -2.2301225662231445
H 1.3453905582427979 2.0464978218078613 -3.7380294799804688
H -0.15408827364444733 1.9530320167541504 -0.7422844171524048
H 3.9445576667785645 0.23576223850250244 1.2106908559799194
H 5.644290924072266 3.5119805335998535 -3.270359992980957
H 8.252225875854492 1.7109013795852661 1.6555891036987305
H 10.243997573852539 2.342334508895874 -3.4536635875701904
H 9.663946151733398 -0.3502040505409241 -2.090301752090454
H 10.584129333496094 5.549105167388916 1.7347118854522705
H 7.438358783721924 6.511864185333252 1.1737467050552368
H 11.523965835571289 5.9898271560668945 -2.5231244564056396
H 10.440755844116211 8.638410568237305 -1.4068821668624878
