22
Generated by QM7 dataset
C 4.223046779632568 -3.4102375507354736 0.20809663832187653
C 6.622054100036621 -1.85410475730896 0.4840911328792572
C 6.248266220092773 0.856575071811676 -0.44140222668647766
C 8.669232368469238 2.410893678665161 -0.13432173430919647
C 8.310562133789062 5.123444557189941 -1.0743659734725952
N 10.641803741455078 6.557217597961426 -0.6821911334991455
C 10.383761405944824 9.142230033874512 -1.5885794162750244
H 4.531922340393066 -5.3316731452941895 0.910866916179657
H 3.6447715759277344 -3.5380020141601562 -1.7739993333816528
H 2.6672351360321045 -2.5760746002197266 1.287356972694397
H 8.144832611083984 -2.760096311569214 -0.5890276432037354
H 7.197286605834961 -1.8439381122589111 2.4741995334625244
H 4.711295127868652 1.7495085000991821 0.6255560517311096
H 5.678475856781006 0.8396242260932922 -2.434685468673706
H 10.207998275756836 1.5026534795761108 -1.1860677003860474
H 9.222524642944336 2.4303011894226074 1.8631943464279175
H 6.753370761871338 6.0109543800354 -0.03514890745282173
H 7.81076717376709 5.098462104797363 -3.085960626602173
H 12.093850135803223 5.697807788848877 -1.6124844551086426
H 8.851042747497559 10.132201194763184 -0.6120634078979492
H 10.036032676696777 9.199867248535156 -3.6277072429656982
H 12.132211685180664 10.181806564331055 -1.2119947671890259
