21
Generated by QM7 dataset
C 1.8197306394577026 -0.04340700805187225 0.06791675835847855
C 4.683629512786865 -0.015401268377900124 0.027212055400013924
C 5.9906206130981445 1.976181149482727 1.732595443725586
C 8.048948287963867 -0.02073029614984989 2.329786777496338
C 10.441965103149414 0.19103240966796875 0.7470465302467346
C 6.046972274780273 -2.076223134994507 1.6292840242385864
C 6.885160446166992 -4.434469223022461 0.2335323542356491
H 1.096230149269104 -1.675450086593628 -0.973586916923523
H 1.0654653310775757 1.6646597385406494 -0.8213883638381958
H 1.0842304229736328 -0.13774213194847107 1.9984420537948608
H 5.376837730407715 0.07218753546476364 -1.930336356163025
H 4.8843560218811035 2.530418872833252 3.395686626434326
H 6.625001907348633 3.691542148590088 0.7675878405570984
H 8.563520431518555 -0.06757660955190659 4.337601661682129
H 10.030552864074707 0.29135796427726746 -1.278116226196289
H 11.67550277709961 -1.4376091957092285 1.0732510089874268
H 11.498719215393066 1.894034743309021 1.263130784034729
H 4.9421820640563965 -2.6278719902038574 3.3019940853118896
H 7.918179035186768 -3.9851300716400146 -1.5007449388504028
H 5.246201038360596 -5.585331439971924 -0.29060208797454834
H 8.112215995788574 -5.590206623077393 1.432658076286316
