14
Generated by QM7 dataset
C 1.8630053997039795 -0.03170960396528244 0.02303576096892357
C 4.762109756469727 0.0 0.0
N 5.656347274780273 -1.2647180557250977 2.290140151977539
C 5.690910339355469 -1.4391776323318481 -2.2044789791107178
C 6.4534149169921875 -2.6073684692382812 -3.9967517852783203
C 5.672995567321777 2.5722384452819824 0.0
C 6.423746109008789 4.692322254180908 0.0
H 1.0873862504959106 0.8812927007675171 -1.670536756515503
H 1.095682144165039 0.9766860604286194 1.6647164821624756
H 1.1183398962020874 -1.966713547706604 0.06699079275131226
H 5.119135856628418 -0.2250663787126541 3.8155648708343506
H 7.580674171447754 -1.2345013618469238 2.2720932960510254
H 7.133300304412842 -3.645810842514038 -5.582269668579102
H 7.099663257598877 6.589323997497559 -0.010506877675652504
