11
Generated by QM7 dataset
C 1.889726161956787 0.0 0.0
C 4.138802528381348 0.0 0.0
C 6.86756706237793 0.0 0.0
C 7.968653678894043 2.1010353565216064 -1.5113840103149414
N 9.370452880859375 1.3474692106246948 -3.3685312271118164
N 9.370339393615723 -1.3531572818756104 -3.366036891937256
C 7.968559265136719 -2.103529691696167 -1.5075857639312744
H -0.12585575878620148 -1.8897260815720074e-05 -0.012113144621253014
H 7.657283782958984 0.0016818562289699912 1.9073761701583862
H 7.634134769439697 4.091767311096191 -1.0298062562942505
H 7.6338887214660645 -4.093317031860352 -1.0223984718322754
