14
Generated by QM7 dataset
C 2.943720817565918 -1.1015969514846802 -2.119460105895996
C 4.167582988739014 -0.1922985315322876 -0.0977555364370346
C 5.537539958953857 2.288193702697754 -0.0189728494733572
N 8.196252822875977 1.863572359085083 0.6192254424095154
N 9.592608451843262 3.970541477203369 1.0352108478546143
C 11.873602867126465 3.484163761138916 1.7541571855545044
H 1.976370096206665 -2.909327983856201 -2.029320240020752
H 2.8743679523468018 -0.0742284432053566 -3.891739845275879
H 4.168452262878418 -1.2821980714797974 1.6445720195770264
H 4.649746894836426 3.4805164337158203 1.423965334892273
H 5.39768123626709 3.28389048576355 -1.831428050994873
H 8.965843200683594 0.7694398164749146 -0.7765262722969055
H 13.180234909057617 5.05325984954834 2.1531918048858643
H 12.617568969726562 1.552712321281433 2.0150339603424072
