15
Generated by QM7 dataset
C 5.668025493621826 -2.136467695236206 1.1504464149475098
C 4.400510787963867 0.3304375112056732 0.487190306186676
O 2.0956873893737793 0.4308386743068695 0.19602128863334656
C 6.044610500335693 2.6441993713378906 0.18600574135780334
C 4.868161201477051 4.894655227661133 0.21811218559741974
C 8.741400718688965 2.393508195877075 -0.25673818588256836
C 10.531254768371582 3.88985013961792 0.7287539839744568
H 6.992440223693848 -1.8706965446472168 2.7157633304595947
H 6.639930725097656 -2.9018824100494385 -0.504122257232666
H 4.233780384063721 -3.495879888534546 1.764399528503418
H 2.8383686542510986 5.041449069976807 0.4998892545700073
H 5.879429340362549 6.655842304229736 -0.057976797223091125
H 9.319769859313965 0.8476933240890503 -1.4851735830307007
H 10.087074279785156 5.454165458679199 1.9802250862121582
H 12.511763572692871 3.5695602893829346 0.2970271408557892
