19
Generated by QM7 dataset
C 3.3877499103546143 -1.0061657428741455 -2.0544347763061523
C 3.253333568572998 0.4723937511444092 0.409654825925827
C 4.318950176239014 3.1164228916168213 0.190673366189003
C 2.849820375442505 5.158725738525391 0.5558629631996155
C 7.0930681228637695 3.3654699325561523 -0.41717594861984253
O 8.508113861083984 2.0480852127075195 1.4562040567398071
C 11.138782501220703 2.1108808517456055 0.9294428825378418
H 2.4299800395965576 -2.8281452655792236 -1.842161774635315
H 5.346356391906738 -1.3921990394592285 -2.6003198623657227
H 2.4726688861846924 0.021883029490709305 -3.6006274223327637
H 4.260406494140625 -0.5617966651916504 1.8943560123443604
H 1.2708408832550049 0.5481717586517334 1.0101908445358276
H 0.8576332926750183 4.979465961456299 1.0144050121307373
H 3.601893663406372 7.063626289367676 0.4301394522190094
H 7.677730560302734 5.353631973266602 -0.4334464967250824
H 7.4775519371032715 2.5692150592803955 -2.2898945808410645
H 12.131587982177734 1.1192659139633179 2.4462127685546875
H 11.821767807006836 4.062004089355469 0.8591073155403137
H 11.54019832611084 1.1510510444641113 -0.8582380414009094
