17
Generated by QM7 dataset
C -2.800290584564209 1.4390075206756592 0.1677131950855255
C -2.8053174018859863 -1.43836510181427 -0.11204186081886292
C -0.3987511098384857 -2.7190134525299072 0.8237504959106445
O 1.6222732067108154 -2.119837999343872 -0.8420997858047485
C 3.0666286945343018 -0.006066021043807268 -0.03745437040925026
O 1.6449121236801147 2.1123735904693604 0.7999588847160339
C -0.41385000944137573 2.7141947746276855 -0.8218418955802917
H -4.451098918914795 2.2063119411468506 -0.8188939094543457
H -3.0189321041107178 1.892333984375 2.178041696548462
H -3.0703136920928955 -1.8926552534103394 -2.1189498901367188
H -4.436642169952393 -2.203874111175537 0.9104322791099548
H 0.042292069643735886 -2.2396655082702637 2.790105104446411
H -0.664578914642334 -4.769555568695068 0.7319287061691284
H 4.310522079467773 -0.5934306979179382 1.508795142173767
H 4.2776031494140625 0.5807317495346069 -1.6099144220352173
H -0.6718354225158691 4.765719413757324 -0.7245398759841919
H -0.014985527843236923 2.23409104347229 -2.7981364727020264
