18
Generated by QM7 dataset
C 5.112559795379639 -1.9895981550216675 -0.7429269552230835
C 4.235783100128174 0.6465508937835693 -0.002645616652444005
N 6.410669326782227 2.35862398147583 0.02622939832508564
C 6.52562141418457 4.0683913230896 -2.1317243576049805
C 5.691628456115723 4.994924068450928 0.4360543191432953
C 7.436771392822266 6.525167465209961 1.9388967752456665
C 7.753905296325684 9.030585289001465 1.750982403755188
H 3.515211820602417 -3.3046586513519287 -0.7181904315948486
H 6.538490295410156 -2.702251672744751 0.5780861377716064
H 5.9247636795043945 -2.006227731704712 -2.6468071937561035
H 3.414149284362793 0.5613431334495544 1.897814154624939
H 2.7262890338897705 1.2496570348739624 -1.2902672290802002
H 5.120345115661621 3.9033238887786865 -3.610586404800415
H 8.406484603881836 4.543298244476318 -2.7891790866851807
H 3.702181339263916 5.410493850708008 0.7112929224967957
H 8.560232162475586 5.514995574951172 3.3338358402252197
H 6.688950061798096 10.14474868774414 0.3980897068977356
H 9.097689628601074 10.00662899017334 2.9518656730651855
