20
Generated by QM7 dataset
C 4.344801425933838 -0.9039505124092102 -2.9337809085845947
C 4.618471622467041 -0.03152063116431236 -0.21104460954666138
C 6.143424034118652 2.4018607139587402 -0.08004879951477051
C 4.844482898712158 4.867783546447754 -0.9508345723152161
N 6.067532539367676 6.189892292022705 1.193702220916748
C 6.244997024536133 3.7243666648864746 2.5355777740478516
C 8.668703079223633 3.450507640838623 4.039402961730957
H 3.2784857749938965 -2.6736979484558105 -3.0185351371765137
H 6.196581840515137 -1.221840262413025 -3.8000314235687256
H 3.3469316959381104 0.5060308575630188 -4.072000980377197
H 5.571763038635254 -1.5094754695892334 0.8830879330635071
H 2.7388556003570557 0.2277686893939972 0.6203026175498962
H 8.02750015258789 2.164870262145996 -0.927987813949585
H 2.7758753299713135 4.8639092445373535 -0.8317251801490784
H 5.3975114822387695 5.556172847747803 -2.8198115825653076
H 7.782553672790527 6.940793991088867 0.7298311591148376
H 4.5803937911987305 3.3597252368927 3.722609281539917
H 10.345173835754395 3.8555705547332764 2.8949849605560303
H 8.850457191467285 1.52045476436615 4.761807441711426
H 8.674542427062988 4.732611179351807 5.663527965545654
