14
Generated by QM7 dataset
N 1.9179397821426392 -0.5305405855178833 -0.35024183988571167
C 4.528482913970947 0.11434733122587204 0.3704241216182709
C 6.600851058959961 -1.4064286947250366 -1.2010154724121094
O 8.241114616394043 0.8983191251754761 -0.5112465023994446
C 5.788779258728027 2.1583127975463867 -1.4494765996932983
C 5.49301815032959 1.3224492073059082 -4.120887756347656
C 6.05402135848999 -1.1408276557922363 -3.9498677253723145
H 0.6186963319778442 0.7621265649795532 0.24135582149028778
H 1.3311041593551636 -2.2320311069488525 0.3354830741882324
H 4.863380432128906 0.32752734422683716 2.400575876235962
H 7.350090026855469 -3.180314540863037 -0.47095754742622375
H 5.67934513092041 4.1610260009765625 -0.982997715473175
H 4.955882549285889 2.423781633377075 -5.742764472961426
H 6.093025207519531 -2.5693471431732178 -5.39471435546875
