17
Generated by QM7 dataset
C 8.297125816345215 -0.18267983198165894 -3.9642486572265625
O 8.418408393859863 -1.1562100648880005 -1.461230754852295
C 8.085155487060547 0.7544920444488525 0.39582204818725586
C 10.319095611572266 2.570103168487549 0.5810908079147339
C 12.859076499938965 1.438554048538208 1.2392445802688599
N 9.916186332702637 4.954257011413574 0.10871594399213791
N 11.952291488647461 6.4878644943237305 0.2446628361940384
H 8.33214282989502 -1.7779299020767212 -5.277740478515625
H 9.935783386230469 1.0156711339950562 -4.357141494750977
H 6.5465216636657715 0.8772675395011902 -4.2632598876953125
H 7.895616054534912 -0.18426719307899475 2.2305948734283447
H 6.328617095947266 1.7964493036270142 0.051154885441064835
H 12.627943992614746 -0.5055395364761353 1.900308609008789
H 13.771718978881836 2.5290205478668213 2.737891912460327
H 14.05676555633545 1.4277637004852295 -0.4453517496585846
H 11.372352600097656 8.330914497375488 0.15902045369148254
H 13.091965675354004 6.25769567489624 -1.299885869026184
