12
Generated by QM7 dataset
O 4.278963565826416 5.671181678771973 -1.3249248266220093
C 4.624537944793701 4.2518839836120605 -3.1105270385742188
O 6.508878231048584 2.5271308422088623 -3.359989643096924
C 8.3048734664917 2.3781826496124268 -1.3200114965438843
C 10.60323429107666 0.791455090045929 -1.8445239067077637
C 10.817737579345703 3.61926007270813 -1.782219648361206
H 3.415736675262451 4.175349712371826 -4.801586151123047
H 7.586135387420654 2.3572821617126465 0.6040131449699402
H 10.73880386352539 -0.14390264451503754 -3.660966396331787
H 11.40772819519043 -0.2680009603500366 -0.28803205490112305
H 11.755570411682129 4.484376907348633 -0.1805822253227234
H 11.098758697509766 4.605016708374023 -3.5544614791870117
