13
Generated by QM7 dataset
N 1.944206953048706 0.030764741823077202 0.0
C 4.483148574829102 -0.03363712504506111 0.0
N 5.927447319030762 -1.9696993827819824 0.0
C 5.857206344604492 2.3009872436523438 0.0
C 6.981744289398193 4.248746871948242 0.0
C 8.310221672058105 6.549734115600586 0.0
C 7.125930309295654 8.781368255615234 -0.0
H 1.0200363397598267 1.7047030925750732 -0.0
H 0.9055945873260498 -1.5667152404785156 0.0
H 4.847223281860352 -3.5664234161376953 0.0
H 10.36180305480957 6.476601600646973 -0.0
H 5.079375743865967 8.92326831817627 -0.0
H 8.199275970458984 10.528079986572266 0.0
