13
Generated by QM7 dataset
O 1.6783791780471802 2.0158276557922363 -1.8577897548675537
N 4.210385322570801 1.2575938701629639 -2.0144481658935547
C 5.520211219787598 2.563734769821167 -0.4256797134876251
C 8.259312629699707 2.059574604034424 -0.2709111273288727
C 9.976242065429688 2.8757286071777344 -2.397948980331421
C 10.082293510437012 4.221421241760254 0.096187062561512
H 0.8716740012168884 0.9417072534561157 -3.1211471557617188
H 4.701147079467773 4.018105983734131 0.8267740607261658
H 8.724563598632812 0.2900351583957672 0.65598064661026
H 9.142948150634766 3.853605031967163 -3.9938228130340576
H 11.52581787109375 1.6333848237991333 -2.896799087524414
H 11.717341423034668 3.9021143913269043 1.2887932062149048
H 9.347946166992188 6.132369041442871 0.17752087116241455
