12
Generated by QM7 dataset
O 4.983699321746826 -1.0517648458480835 2.553114414215088
C 4.585817337036133 -0.05270446091890335 0.09352254867553711
C 5.507984638214111 2.6399285793304443 0.0
C 3.9002814292907715 4.598610877990723 -0.158529132604599
C 8.120455741882324 3.1241331100463867 0.0
C 10.331870079040527 3.5339956283569336 0.0
H 4.521831035614014 -2.8254051208496094 2.4835915565490723
H 2.5665881633758545 -0.18424829840660095 -0.338922381401062
H 5.6105780601501465 -1.2145458459854126 -1.279174566268921
H 1.8691848516464233 4.31758975982666 -0.17347685992717743
H 4.572513580322266 6.535882472991943 -0.24411481618881226
H 12.310413360595703 3.900186777114868 0.014702069573104382
