19
Generated by QM7 dataset
C 5.799569606781006 -2.1267166137695312 -1.219950556755066
C 4.805233478546143 0.0893651470541954 0.3187778890132904
C 6.324252128601074 2.5124475955963135 -0.10535223037004471
C 6.231201648712158 3.518575668334961 -2.8281452655792236
C 6.408703804016113 6.3115153312683105 -2.4559826850891113
C 5.954980373382568 6.965662956237793 -0.05750436708331108
C 5.402632713317871 4.713468074798584 1.5512762069702148
H 4.7151689529418945 -3.835350275039673 -0.7897354364395142
H 7.786144256591797 -2.502488613128662 -0.7805324792861938
H 5.637959957122803 -1.7703710794448853 -3.2508392333984375
H 4.870296478271484 -0.41290515661239624 2.3278968334198
H 2.813140869140625 0.403116375207901 -0.15667718648910522
H 8.310958862304688 2.13344407081604 0.37975937128067017
H 4.466405391693115 3.0419676303863525 -3.7984817028045654
H 7.823523044586182 2.801877975463867 -3.9363372325897217
H 6.789653778076172 7.630619525909424 -3.9698989391326904
H 5.918509006500244 8.886645317077637 0.6368566155433655
H 6.447934627532959 4.780610084533691 3.3345351219177246
H 3.3773186206817627 4.6121602058410645 1.9648994207382202
