17
Generated by QM7 dataset
C 2.821077585220337 5.3865132331848145 -1.6273943185806274
C 5.584670066833496 4.930654525756836 -1.2411532402038574
C 6.539869785308838 2.7365500926971436 -0.4062533378601074
C 9.202682495117188 2.1566500663757324 -0.0023810549173504114
C 9.861763000488281 -0.14781437814235687 0.8369030356407166
C 11.212217330932617 4.112214088439941 -0.5693367123603821
O 11.236576080322266 6.03359317779541 1.3110164403915405
H 2.1956539154052734 6.961637496948242 -0.4427250325679779
H 1.6774531602859497 3.729128837585449 -1.1538289785385132
H 2.459969997406006 5.874912738800049 -3.6040289402008057
H 6.803203105926514 6.520500183105469 -1.6978622674942017
H 5.219518184661865 1.2094813585281372 0.016308337450027466
H 8.476347923278809 -1.605114459991455 1.2496002912521362
H 11.828136444091797 -0.6447934508323669 1.1546226739883423
H 10.908368110656738 4.988480091094971 -2.4194352626800537
H 13.101339340209961 3.2686970233917236 -0.6169388890266418
H 9.62583065032959 5.961311340332031 2.1926302909851074
