19
Generated by QM7 dataset
C 2.761683464050293 -0.3112945854663849 2.4814939498901367
C 5.4860639572143555 -0.4326716959476471 1.5973855257034302
C 5.874799728393555 1.3396269083023071 -0.5877993106842041
N 7.319721698760986 3.299461841583252 -0.3575173020362854
N 7.4408721923828125 4.703301429748535 -2.507024049758911
C 5.564260959625244 6.74974250793457 -2.67541766166687
C 9.953206062316895 5.784130573272705 -2.989225387573242
H 2.457740068435669 -1.6075143814086914 4.063326835632324
H 1.4620622396469116 -0.8308181166648865 0.9576565027236938
H 2.269277572631836 1.600182294845581 3.1017019748687744
H 5.940051555633545 -2.34645414352417 0.9583935141563416
H 6.76533317565918 0.06585695594549179 3.1448822021484375
H 4.864155292510986 0.8900988101959229 -2.360211133956909
H 3.64953351020813 5.9860663414001465 -2.4749553203582764
H 5.6461992263793945 7.682927131652832 -4.521944522857666
H 5.848551273345947 8.166829109191895 -1.1925684213638306
H 11.37724781036377 4.281155586242676 -3.0180437564849854
H 10.490984916687012 7.151857376098633 -1.5293364524841309
H 10.023069381713867 6.714405059814453 -4.838624954223633
