10
Generated by QM7 dataset
O 1.7379810810089111 -0.1433357298374176 0.12636598944664001
S 4.447980880737305 -0.1508757323026657 0.4825793504714966
O 5.589696407318115 -0.14462074637413025 2.9650180339813232
C 5.743860244750977 2.2869277000427246 -1.2748470306396484
C 7.150629043579102 1.4321478605270386 -3.181429624557495
C 7.043727397918701 -1.3221091032028198 -3.0380749702453613
N 5.732541084289551 -2.346945285797119 -1.2612977027893066
H 5.383546352386475 4.228470325469971 -0.7869953513145447
H 8.179622650146484 2.492926597595215 -4.575971603393555
H 8.090332984924316 -2.422628879547119 -4.457655906677246
