11
Generated by QM7 dataset
C 1.8292170763015747 -0.22739075124263763 0.02857265993952751
C 4.669532299041748 0.15399378538131714 0.03607487305998802
C 5.314098834991455 2.9291889667510986 0.009070685133337975
O 5.512085437774658 4.165542125701904 -1.9432809352874756
C 5.611465930938721 4.118091106414795 2.4656012058258057
N 5.833225727081299 4.999610424041748 4.463967800140381
H 1.3717143535614014 -2.2436530590057373 -0.002645616652444005
H 0.9658957123756409 0.6597033739089966 -1.6299265623092651
H 0.9601320624351501 0.6078492999076843 1.7105233669281006
H 5.516866683959961 -0.7221210598945618 -1.637995719909668
H 5.523556232452393 -0.7512228488922119 1.6906434297561646
