15
Generated by QM7 dataset
O 1.5867841243743896 0.177010640501976 0.17829565703868866
C 4.316625595092773 0.12534552812576294 0.05767444148659706
C 5.752931118011475 1.9422794580459595 1.804367184638977
O 7.440097332000732 -0.06306016445159912 2.6154565811157227
C 5.696787357330322 -1.9400306940078735 1.6038483381271362
C 6.7932820320129395 -4.038703918457031 0.09065016359090805
C 9.147578239440918 -3.9450111389160156 -0.8348432183265686
H 1.0468894243240356 -1.2198560237884521 -0.8881334662437439
H 4.944033622741699 0.2814747095108032 -1.9123461246490479
H 4.676618576049805 2.7100939750671387 3.394477367401123
H 6.771909236907959 3.4617137908935547 0.8448776602745056
H 4.5444135665893555 -2.7104721069335938 3.1494176387786865
H 5.620007514953613 -5.689455032348633 -0.23309771716594696
H 10.37552261352539 -2.3312039375305176 -0.5148369669914246
H 9.913900375366211 -5.509458541870117 -1.9172782897949219
