15
Generated by QM7 dataset
C 1.6595386266708374 -0.04476761072874069 0.23757636547088623
C 4.515821933746338 0.0455612987279892 -0.08751321583986282
C 5.3192009925842285 0.06797344982624054 -2.84912109375
C 5.890975475311279 1.9601373672485352 1.6136560440063477
O 7.116973400115967 -0.07783781737089157 2.9839909076690674
C 5.9713454246521 -1.8862868547439575 1.5666207075119019
O 6.173810958862305 -4.156301498413086 1.7255656719207764
H 1.1217414140701294 -0.1045963391661644 2.2361319065093994
H 0.8636993169784546 -1.7233169078826904 -0.6750857830047607
H 0.7700067162513733 1.6238038539886475 -0.6033706665039062
H 7.380495548248291 0.08883602917194366 -3.042440176010132
H 4.579392433166504 1.7405511140823364 -3.8173601627349854
H 4.615240573883057 -1.6084403991699219 -3.838014841079712
H 4.7004289627075195 3.096637487411499 2.8663554191589355
H 7.278072357177734 3.18245005607605 0.686272919178009
