19
Generated by QM7 dataset
C 1.652773380279541 -1.6691572666168213 1.8761768341064453
C 4.195191860198975 -1.1179808378219604 0.65410977602005
C 4.739300727844238 1.7171374559402466 0.5973802208900452
N 7.197059631347656 2.196201801300049 -0.5858150720596313
N 7.875244617462158 4.657872676849365 -0.7350278496742249
C 10.100075721740723 5.000820159912109 -1.6888670921325684
C 11.141107559204102 7.611476898193359 -2.0057930946350098
H 1.286960244178772 -3.704807996749878 1.882318377494812
H 0.11680397391319275 -0.7439284920692444 0.8437626957893372
H 1.6118985414505005 -1.0036712884902954 3.8351235389709473
H 4.19479513168335 -1.881600260734558 -1.2719746828079224
H 5.68076229095459 -2.106175422668457 1.7057991027832031
H 4.742834568023682 2.4689838886260986 2.5291337966918945
H 3.2519729137420654 2.6985855102539062 -0.4628317356109619
H 7.239635467529297 1.3356584310531616 -2.3156704902648926
H 11.322426795959473 3.421746015548706 -2.3006093502044678
H 9.799080848693848 9.031662940979004 -1.339192271232605
H 11.551650047302246 7.927948951721191 -4.00565242767334
H 12.902729034423828 7.763240814208984 -0.9372285604476929
