15
Generated by QM7 dataset
C 0.9025521278381348 0.5398002862930298 -0.015533548779785633
C 3.2638027667999268 -1.0384612083435059 -0.19269537925720215
C 2.9855215549468994 -3.7261431217193604 -1.1841779947280884
O 3.866379737854004 -5.491260528564453 0.6257449984550476
N 5.401989936828613 -0.035205598920583725 0.4976593852043152
N 7.46477746963501 -1.6516584157943726 0.26012080907821655
C 9.524805068969727 -0.49204689264297485 0.8640772700309753
H 1.329365611076355 2.413501501083374 0.7436261177062988
H -0.45483818650245667 -0.399752676486969 1.226413369178772
H 0.07626934349536896 0.743777334690094 -1.8979653120040894
H 4.067843437194824 -3.9347121715545654 -2.9332518577575684
H 1.0005344152450562 -4.134683132171631 -1.5862171649932861
H 5.551864147186279 -4.859071731567383 1.0700573921203613
H 11.34279727935791 -1.4989874362945557 0.7800411581993103
H 9.573541641235352 1.5018599033355713 1.4759516716003418
