18
Generated by QM7 dataset
N 3.4533610343933105 -0.10862145572900772 2.4992573261260986
C 4.29107666015625 0.3693658709526062 -0.0767606720328331
C 6.212625980377197 2.433494806289673 0.012963521294295788
C 6.3402581214904785 4.391912460327148 -2.060746431350708
C 5.426046371459961 5.131834983825684 0.534943699836731
C 7.002172470092773 6.733623504638672 2.23409104347229
O 6.191763401031494 9.28405475616455 2.017660617828369
H 2.098654270172119 -1.4791264533996582 2.4750120639801025
H 2.5854477882385254 1.473759651184082 3.17995548248291
H 2.6721861362457275 0.8765116930007935 -1.2595781087875366
H 5.142020225524902 -1.3436520099639893 -0.8588805198669434
H 7.9869842529296875 1.775000810623169 0.805873692035675
H 4.957337379455566 4.314603805541992 -3.572300434112549
H 8.197310447692871 5.007528781890869 -2.6703341007232666
H 3.425978899002075 5.5061140060424805 0.7882236838340759
H 9.014503479003906 6.640592098236084 1.7660624980926514
H 6.7645769119262695 6.146371841430664 4.200653553009033
H 6.340446949005127 9.732051849365234 0.24063771963119507
