17
Generated by QM7 dataset
N 2.019096851348877 -0.028100227937102318 -0.46169787645339966
C 4.7317609786987305 0.032767850905656815 0.0640428215265274
C 5.564128398895264 2.0279974937438965 1.9691135883331299
O 7.9987382888793945 1.2390745878219604 2.876352071762085
C 8.241738319396973 -1.4370800256729126 2.4276554584503174
C 5.733882427215576 -2.3698489665985107 1.332030177116394
N 5.9489521980285645 -4.544829368591309 -0.3711233139038086
H 1.6347265243530273 -1.4167276620864868 -1.7366961240768433
H 1.4770855903625488 1.6304935216903687 -1.2783619165420532
H 5.749548435211182 0.34956154227256775 -1.7170429229736328
H 4.288865566253662 2.129626750946045 3.5972070693969727
H 5.714437484741211 3.9113929271698 1.1313223838806152
H 9.81795883178711 -1.7011126279830933 1.1110455989837646
H 8.713414192199707 -2.387442111968994 4.20337438583374
H 4.489479064941406 -2.898348569869995 2.905869722366333
H 7.021674156188965 -4.074211597442627 -1.9006298780441284
H 4.197742938995361 -4.969639778137207 -1.0503475666046143
