10
Generated by QM7 dataset
O 2.246241807937622 -0.5913708806037903 0.957543134689331
C 4.2288289070129395 -0.07959526777267456 -0.13878148794174194
C 5.6098222732543945 2.4253690242767334 0.0
C 4.769914627075195 3.987907886505127 2.1540422439575195
C 4.087118625640869 5.273318767547607 3.897012233734131
C 8.292893409729004 1.928087592124939 0.0
N 10.431571960449219 1.5317175388336182 0.0
H 5.021663665771484 -1.4581882953643799 -1.493658423423767
H 5.125220775604248 3.421330213546753 -1.7534202337265015
H 3.470860004425049 6.400199890136719 5.449970245361328
