12
Generated by QM7 dataset
C 1.9757843017578125 -0.050398994237184525 -0.009013993665575981
C 4.755306720733643 0.1753476858139038 -0.012415500357747078
N 6.162982940673828 2.233372926712036 -0.015042220242321491
C 8.588427543640137 1.3103927373886108 -0.01804688386619091
C 8.53812313079834 -1.281158685684204 -0.01719650812447071
O 10.215311050415039 -3.1294431686401367 -0.018840570002794266
O 6.085163593292236 -2.043039560317993 -0.013757206499576569
H 1.091845989227295 1.818351149559021 0.013643822632730007
H 1.3363765478134155 -1.089786171913147 1.659406304359436
H 1.3298569917678833 -1.052520751953125 -1.697597622871399
H 10.204917907714844 2.554607391357422 -0.02050352841615677
H 11.87120246887207 -2.3398778438568115 -0.021146034821867943
