18
Generated by QM7 dataset
C 2.3496286869049072 -0.05518000200390816 -0.2884100079536438
N 5.10163688659668 0.050228919833898544 -0.2455132156610489
C 6.3050713539123535 -1.0342849493026733 -2.4674344062805176
C 6.310948371887207 1.8114725351333618 -2.040337324142456
C 4.7700090408325195 3.447465181350708 -3.7935495376586914
C 8.728663444519043 3.0425913333892822 -1.127618432044983
O 10.49786376953125 3.182487726211548 -3.1512506008148193
H 1.5541675090789795 1.6976165771484375 0.4713543951511383
H 1.721313714981079 -1.596421718597412 0.941612720489502
H 1.516524076461792 -0.39842987060546875 -2.1521902084350586
H 5.130701065063477 -1.816102385520935 -3.951625108718872
H 8.023871421813965 -2.0907552242279053 -2.1102004051208496
H 3.295342206954956 2.3959836959838867 -4.7927422523498535
H 5.9795660972595215 4.294856071472168 -5.244386672973633
H 3.8722379207611084 4.984247207641602 -2.7372682094573975
H 9.608142852783203 1.996193289756775 0.4283631145954132
H 8.352930068969727 4.964820861816406 -0.46105536818504333
H 10.955479621887207 1.453161597251892 -3.5626251697540283
