19
Generated by QM7 dataset
C 2.6849796772003174 0.33924365043640137 -3.529876232147217
C 1.57194983959198 0.856480598449707 -0.9326932430267334
C 3.314655303955078 2.390333414077759 0.8150577545166016
C 3.774444580078125 5.055074214935303 -0.19683387875556946
O 2.0356507301330566 2.5400753021240234 3.2047109603881836
C 3.3957622051239014 2.8810954093933105 5.366368770599365
C 5.884664058685303 3.1778769493103027 5.676397323608398
H 1.4280282258987427 -0.9043851494789124 -4.6042609214782715
H 4.526442050933838 -0.5901047587394714 -3.377847671508789
H 2.9158663749694824 2.080815315246582 -4.6190009117126465
H 1.1387112140655518 -0.9538203477859497 -0.01736658252775669
H -0.25184381008148193 1.8221684694290161 -1.1365190744400024
H 5.099728107452393 1.3543288707733154 1.0021406412124634
H 1.983721137046814 6.059123516082764 -0.4636442959308624
H 4.792761325836182 5.0247063636779785 -1.9945114850997925
H 4.8839592933654785 6.181237697601318 1.1366324424743652
H 2.10925555229187 2.894172191619873 6.965058326721191
H 7.219283103942871 3.193145751953125 4.125669002532959
H 6.6540093421936035 3.438413381576538 7.560737609863281
