11
Generated by QM7 dataset
C 1.7788937091827393 -0.1931867003440857 0.004327472764998674
C 4.588141441345215 0.0030613562557846308 -0.4022848904132843
O 5.853710174560547 -1.8207322359085083 -1.0937734842300415
C 5.8914289474487305 2.4568140506744385 0.038077980279922485
C 4.755288124084473 4.5860443115234375 0.7931747436523438
H 0.7837828397750854 1.095625400543213 -1.2665889263153076
H 1.3147013187408447 0.21814998984336853 1.9745559692382812
H 1.1618603467941284 -2.1214444637298584 -0.41719484329223633
H 7.914664268493652 2.4140684604644775 -0.30590885877609253
H 2.743201971054077 4.7159247398376465 1.1589878797531128
H 5.859719276428223 6.294753551483154 1.0675251483917236
