17
Generated by QM7 dataset
C 8.203660011291504 -3.3081166744232178 2.6327285766601562
C 9.192119598388672 -0.7832158803939819 1.7056289911270142
O 7.11990213394165 0.9662169814109802 1.6471986770629883
C 7.684684753417969 3.335442304611206 0.8652867078781128
N 9.910271644592285 4.0353779792785645 0.15325678884983063
N 10.045689582824707 6.488280296325684 -0.5744389295578003
C 12.552865028381348 7.354247093200684 -1.3224303722381592
H 9.724266052246094 -4.707080841064453 2.720392942428589
H 6.718051910400391 -4.015252113342285 1.3775537014007568
H 7.3629021644592285 -3.1168954372406006 4.513629913330078
H 9.978415489196777 -1.0009500980377197 -0.19700394570827484
H 10.653898239135742 -0.0919351801276207 2.9977104663848877
H 5.986917018890381 4.54326057434082 0.9227154850959778
H 8.801229476928711 6.884479999542236 -2.000180721282959
H 13.906664848327637 7.104671001434326 0.2219294309616089
H 12.488689422607422 9.366182327270508 -1.7934824228286743
H 13.229216575622559 6.3164472579956055 -2.979285478591919
