21
Generated by QM7 dataset
C -2.879054546356201 1.427555799484253 0.2621617019176483
C -2.8867456912994385 -1.4171056747436523 -0.19711732864379883
C -0.5676548480987549 -2.8304507732391357 0.7824599742889404
C 1.7919516563415527 -2.3329803943634033 -0.7973699569702148
C 3.303581476211548 0.002796794753521681 -0.041441693902015686
C 1.8131544589996338 2.342353343963623 0.7445142865180969
C -0.5845301151275635 2.8383119106292725 -0.7773010730743408
H -4.5823211669921875 2.2184629440307617 -0.6171467900276184
H -3.060317039489746 1.7955043315887451 2.2945244312286377
H -3.1207315921783447 -1.7843360900878906 -2.224245548248291
H -4.567978382110596 -2.2058017253875732 0.725598156452179
H -0.23324888944625854 -2.415050983428955 2.7838122844696045
H -0.989989697933197 -4.85801362991333 0.6657693982124329
H 3.0536084175109863 -3.971693992614746 -0.6419588923454285
H 1.282859444618225 -2.209486722946167 -2.803616523742676
H 4.573930740356445 -0.4957318603992462 1.52045476436615
H 4.543411731719971 0.4975270926952362 -1.62875497341156
H 1.3544234037399292 2.2248313426971436 2.7630064487457275
H 3.0729215145111084 3.979139566421509 0.5538220405578613
H -1.0022729635238647 4.86629056930542 -0.6535050868988037
H -0.29969167709350586 2.4194164276123047 -2.7856452465057373
