16
Generated by QM7 dataset
C 1.1768836975097656 1.5065274238586426 1.301567792892456
C 2.4632391929626465 -0.7929857969284058 0.1788814812898636
O 5.045209884643555 -0.7997509837150574 0.9746829271316528
N 6.251138687133789 -2.908137321472168 -0.126479372382164
C 7.295873641967773 -4.657683372497559 1.4595677852630615
C 6.307887077331543 -4.73085355758667 4.125272274017334
O 8.908849716186523 -6.145880699157715 0.6948900818824768
H -0.8153223395347595 1.5761449337005615 0.7564573884010315
H 2.103964328765869 3.243110179901123 0.6633316874504089
H 1.305347204208374 1.479428768157959 3.3666605949401855
H 2.3721165657043457 -0.7116519808769226 -1.8886111974716187
H 1.5251601934432983 -2.5181922912597656 0.8354856967926025
H 7.221550464630127 -2.5805156230926514 -1.7468628883361816
H 4.2583842277526855 -4.989802837371826 4.117486476898193
H 6.802296161651611 -2.986428737640381 5.114619255065918
H 7.163895130157471 -6.32198429107666 5.129982948303223
