18
Generated by QM7 dataset
C 1.8817893266677856 0.12844468653202057 0.0944485142827034
C 4.759501934051514 -0.014947733841836452 0.0658191591501236
N 5.864009380340576 2.070894241333008 1.5608570575714111
C 8.42392635345459 1.1842913627624512 2.175358295440674
C 8.14381217956543 -1.616660714149475 2.772568464279175
C 5.886648178100586 -2.360173463821411 1.223975658416748
C 5.031490325927734 -4.735672473907471 1.0318660736083984
H 1.0560734272003174 -1.325057029724121 -1.1255775690078735
H 1.2317991256713867 1.964823842048645 -0.6069611310958862
H 1.1175462007522583 -0.1324131041765213 2.0011632442474365
H 5.432906150817871 0.16467073559761047 -1.8875151872634888
H 4.857314109802246 2.221543073654175 3.198153495788574
H 9.667952537536621 1.4710006713867188 0.5422379970550537
H 9.224112510681152 2.235999584197998 3.766469955444336
H 9.843829154968262 -2.668898105621338 2.2453348636627197
H 7.745174884796143 -1.8931465148925781 4.785693645477295
H 3.3746161460876465 -5.1988444328308105 -0.08375266194343567
H 5.979943752288818 -6.284152030944824 1.9871982336044312
