15
Generated by QM7 dataset
C 1.889726161956787 0.0 0.0
C 4.138802528381348 0.0 0.0
C 6.86756706237793 0.0 0.0
C 7.979009628295898 -2.383209228515625 1.2280195951461792
C 8.575992584228516 -1.6791728734970093 3.9702200889587402
C 8.795541763305664 1.130301833152771 3.8574411869049072
C 7.850697040557861 2.0453639030456543 1.6969740390777588
H -0.12383375316858292 0.005385719705373049 0.0070675755850970745
H 7.609038829803467 0.22028537094593048 -1.9194326400756836
H 9.74992847442627 -2.8852715492248535 0.2664324939250946
H 6.7406907081604 -4.039686679840088 1.113634467124939
H 10.332228660583496 -2.566418170928955 4.60210657119751
H 7.045125961303711 -2.2283272743225098 5.24941349029541
H 9.55186653137207 2.271601915359497 5.375363826751709
H 7.757439136505127 4.0315985679626465 1.2244291305541992
