21
Generated by QM7 dataset
C 4.749543190002441 -1.501368522644043 -2.2505314350128174
C 4.066917419433594 0.11449850350618362 0.035715822130441666
C 5.167059421539307 2.8231942653656006 -0.010733644478023052
C 4.087213039398193 4.312676429748535 -2.261038303375244
C 4.435772895812988 4.227034091949463 2.424537420272827
O 7.854968070983887 2.833908796310425 -0.3872426748275757
C 9.362175941467285 1.7449352741241455 1.5468542575836182
H 4.033979415893555 -3.424694061279297 -1.9894658327102661
H 6.795417308807373 -1.6186449527740479 -2.5173985958099365
H 3.9028513431549072 -0.7556259036064148 -3.9815773963928223
H 4.730967044830322 -0.880499005317688 1.728286862373352
H 2.0004262924194336 0.20142590999603271 0.1948496550321579
H 4.735407829284668 3.5358476638793945 -4.067295551300049
H 4.749656677246094 6.276914119720459 -2.2217133045196533
H 2.017207145690918 4.327718734741211 -2.2505125999450684
H 5.0148606300354 3.1759305000305176 4.109870910644531
H 2.3891429901123047 4.512911796569824 2.5457255840301514
H 5.365518093109131 6.074619293212891 2.519930839538574
H 11.334425926208496 1.8274219036102295 0.9329955577850342
H 8.882184982299805 -0.23893697559833527 1.8612858057022095
H 9.20903205871582 2.8141801357269287 3.306737184524536
