19
Generated by QM7 dataset
C 2.239778995513916 0.32854777574539185 0.5697713494300842
C 5.007264137268066 0.531277596950531 -0.24526755511760712
C 5.341972351074219 -0.5475859642028809 -2.921781063079834
C 8.094094276428223 -0.6416754126548767 -3.7753138542175293
O 8.248900413513184 -1.7696151733398438 -6.2142133712768555
C 5.8444504737854 3.253787040710449 -0.09063126891851425
C 7.716564178466797 4.078879356384277 1.4005327224731445
H 1.9690946340560913 1.0768226385116577 2.482684373855591
H 1.6220464706420898 -1.6479545831680298 0.5775948166847229
H 0.9903865456581116 1.3784040212631226 -0.7066630721092224
H 6.130384922027588 -0.6198679804801941 1.0653331279754639
H 4.240904331207275 0.5482851266860962 -4.298654556274414
H 4.558661937713623 -2.468001127243042 -2.9980883598327637
H 9.250530242919922 -1.7542139291763306 -2.469153881072998
H 8.909340858459473 1.2520757913589478 -3.915947198867798
H 7.602953910827637 -3.4838802814483643 -6.072880744934082
H 4.8521928787231445 4.612292289733887 -1.2765100002288818
H 8.76986026763916 2.8094558715820312 2.620086431503296
H 8.236068725585938 6.063601970672607 1.4278960227966309
