14
Generated by QM7 dataset
C 5.8240790367126465 -1.2784374952316284 -0.6265009045600891
O 4.5929036140441895 1.1120092868804932 -0.6001580953598022
C 5.997896194458008 3.2429778575897217 -0.10949072986841202
N 4.4812774658203125 5.3460164070129395 0.011546226218342781
C 8.521285057067871 3.2596263885498047 0.17946729063987732
C 9.950617790222168 5.56341028213501 0.8236371278762817
O 12.268158912658691 5.570345878601074 0.8274732828140259
H 4.391270160675049 -2.726818084716797 -0.9749853014945984
H 6.703160762786865 -1.6791728734970093 1.2026406526565552
H 7.211742877960205 -1.3774969577789307 -2.156914472579956
H 2.7353785037994385 4.905918121337891 -0.6803959012031555
H 5.204287052154541 6.871819019317627 -0.9016828536987305
H 9.68637752532959 1.5950044393539429 0.01424853503704071
H 8.845751762390137 7.260119915008545 1.308011770248413
